[TITLE]
;;Project Title/Notes
Zhonggang	drainage	system							
5yr24hr.	design	typhoon	rainfall						
Baoyi-Shijian-Zhonggang	drainage	system							
Gravity	pipe	system	with	pump	station				
									
									
									
;	CDM	SWMM4	Converter						
									
									

[OPTIONS]
;;Option             Value
FLOW_UNITS           CMS
INFILTRATION         HORTON
FLOW_ROUTING         DYNWAVE
LINK_OFFSETS         DEPTH
MIN_SLOPE            0
ALLOW_PONDING        NO
SKIP_STEADY_STATE    NO

START_DATE           08/31/2005
START_TIME           06:00:00
REPORT_START_DATE    08/31/2005
REPORT_START_TIME    06:00:00
END_DATE             09/01/2005
END_TIME             16:01:00
SWEEP_START          01/01
SWEEP_END            12/31
DRY_DAYS             0
REPORT_STEP          01:00:00
WET_STEP             00:01:00
DRY_STEP             00:01:00
ROUTING_STEP         0:00:10 
RULE_STEP            00:00:00

INERTIAL_DAMPING     PARTIAL
NORMAL_FLOW_LIMITED  SLOPE
FORCE_MAIN_EQUATION  H-W
VARIABLE_STEP        0.75
LENGTHENING_STEP     0
MIN_SURFAREA         12.566
MAX_TRIALS           8
HEAD_TOLERANCE       0.0015
SYS_FLOW_TOL         5
LAT_FLOW_TOL         5
MINIMUM_STEP         0.5
THREADS              1

[EVAPORATION]
;;Data Source    Parameters
;;-------------- ----------------
CONSTANT         0.0
DRY_ONLY         NO

[RAINGAGES]
;;Name           Format    Interval SCF      Source    
;;-------------- --------- ------ ------ ----------
GAGE1            INTENSITY 1        1        TIMESERIES Typhoon_TALIM   

[SUBCATCHMENTS]
;;Name           Rain Gage        Outlet           Area     %Imperv  Width    %Slope   CurbLen  SnowPack        
;;-------------- ---------------- ---------------- -------- -------- -------- -------- -------- ----------------
1                GAGE1            4335-826         2.79     90.0     218.0    2.6      0                        
2                GAGE1            4335-824         0.27     90.0     68.0     31.8     0                        
3                GAGE1            4335-823         0.32     90.0     73.0     0.1      0                        
4                GAGE1            4335-829         1.7      90.0     170.0    0.1      0                        
5                GAGE1            4335-821         0.55     90.0     97.0     0.8      0                        
6                GAGE1            4335-820         0.44     90.0     87.0     0.8      0                        
7                GAGE1            4335-819         0.25     90.0     66.0     0.4      0                        
8                GAGE1            4335-818         0.28     90.0     69.0     0.7      0                        
9                GAGE1            4335-817         0.42     80.0     85.0     0.5      0                        
10               GAGE1            4335-12          0.84     90.0     119.0    1.7      0                        
13               GAGE1            4335-811         4.56     60.0     279.0    0.2      0                        
14               GAGE1            4335-830         0.47     90.0     89.0     0.6      0                        
15               GAGE1            4335-831         19.8     50.0     580.0    0.4      0                        
16               GAGE1            4335-828         0.63     80.0     104.0    0.7      0                        
17               GAGE1            4335-09          3.19     30.0     233.0    23.7     0                        
18               GAGE1            4335-07          1.35     50.0     152.0    0.4      0                        
19               GAGE1            4335-06          1.39     50.0     154.0    0.1      0                        
22               GAGE1            4335-03          2.26     50.0     196.0    0.2      0                        
23               GAGE1            4335-13          1.61     50.0     165.0    0.1      0                        
24               GAGE1            4435-833         4.9      90.0     289.0    0.3      0                        
25               GAGE1            4335-808         1.21     90.0     144.0    0.5      0                        
26               GAGE1            4335-807a        0.26     90.0     66.0     1.1      0                        
27               GAGE1            4335-08          0.25     80.0     65.0     1.0      0                        
28               GAGE1            4335-806         0.38     90.0     80.0     2.0      0                        
29               GAGE1            4335-805         0.44     90.0     86.0     0.7      0                        
30               GAGE1            4335-804         2.25     90.0     196.0    0.3      0                        
31               GAGE1            4335-02          0.64     90.0     105.0    0.6      0                        
32               GAGE1            4335-803         0.95     90.0     127.0    1.3      0                        
33               GAGE1            4335-801         1.09     90.0     136.0    1.2      0                        
34               GAGE1            4435-501         1.07     70.0     135.0    2.1      0                        
35               GAGE1            4435-510         0.5      90.0     92.0     2.9      0                        
36               GAGE1            4435-502         0.47     90.0     90.0     4.9      0                        
38               GAGE1            4334-809         1.77     90.0     173.0    0.7      0                        
39               GAGE1            4335-816         0.4      90.0     82.0     1.2      0                        
40               GAGE1            4335-815         0.09     80.0     38.0     3.3      0                        
41               GAGE1            4335-812         0.28     90.0     68.0     2.2      0                        
42               GAGE1            4335-813         0.16     90.0     52.0     4.4      0                        
43               GAGE1            4335-814         0.11     90.0     44.0     2.7      0                        
44               GAGE1            4434-33          1.08     90.0     135.0    0.8      0                        
45               GAGE1            4434-34          0.23     90.0     63.0     1.8      0                        
46               GAGE1            4434-32          0.37     90.0     79.0     0.8      0                        
47               GAGE1            4434-31          1.56     90.0     163.0    1.2      0                        
49               GAGE1            4435-831         5.79     90.0     314.0    0.1      0                        
50               GAGE1            4435-810         4.01     90.0     261.0    0.1      0                        
51               GAGE1            4435-830         1.29     90.0     148.0    0.4      0                        
52               GAGE1            4435-03          2.11     80.0     189.0    1.2      0                        
53               GAGE1            4435-04          1.65     90.0     168.0    0.9      0                        
54               GAGE1            4435-829         1.97     90.0     183.0    0.4      0                        
55               GAGE1            4435-05          1.22     90.0     144.0    0.4      0                        
56               GAGE1            4435-808         1.07     90.0     135.0    5.8      0                        
57               GAGE1            4435-807         0.32     90.0     74.0     2.1      0                        
58               GAGE1            4435-806         0.24     90.0     64.0     3.0      0                        
59               GAGE1            4435-811         0.17     30.0     54.0     1.4      0                        
60               GAGE1            4435-812         0.43     30.0     85.0     3.5      0                        
61               GAGE1            4435-814         8.61     80.0     383.0    0.2      0                        
62               GAGE1            4435-504         0.21     90.0     59.0     0.6      0                        
63               GAGE1            4435-503         1.86     90.0     178.0    0.2      0                        
64               GAGE1            4435-505         0.35     90.0     77.0     0.3      0                        
65               GAGE1            4435-805         0.12     90.0     46.0     2.4      0                        
66               GAGE1            4435-804         0.16     90.0     52.0     2.6      0                        
67               GAGE1            4435-803         0.13     90.0     47.0     0.7      0                        
68               GAGE1            4435-801         1.45     90.0     157.0    0.1      0                        
69               GAGE1            4536-04          14.52    30.0     497.0    0.1      0                        
70               GAGE1            4536-02          3.32     30.0     237.0    0.3      0                        
71               GAGE1            4536-01          4.81     30.0     286.0    0.5      0                        
107              GAGE1            4535-511         1.31     90.0     149.0    1.2      0                        
108              GAGE1            4535-512         0.59     90.0     100.0    0.9      0                        
109              GAGE1            4535-513         2.01     90.0     185.0    0.4      0                        
110              GAGE1            4535-514         6.37     90.0     329.0    0.5      0                        
111              GAGE1            4535-817         0.2      90.0     59.0     1.1      0                        
112              GAGE1            4535-818         0.33     90.0     75.0     0.7      0                        
113              GAGE1            4535-819         1.54     90.0     162.0    0.5      0                        
114              GAGE1            4535-821         3.39     90.0     240.0    1.2      0                        
115              GAGE1            4435-508         0.44     90.0     86.0     0.1      0                        
116              GAGE1            4435-817         0.25     90.0     65.0     0.6      0                        
117              GAGE1            4435-816         0.58     90.0     99.0     0.1      0                        
118              GAGE1            4435-815         0.22     90.0     61.0     0.2      0                        
119              GAGE1            4435-818         2.19     90.0     193.0    0.2      0                        
120              GAGE1            4435-507         0.24     90.0     64.0     0.6      0                        
121              GAGE1            4435-823         0.85     90.0     120.0    0.2      0                        
122              GAGE1            4435-824         0.91     30.0     124.0    0.1      0                        
123              GAGE1            4435-825         0.56     30.0     98.0     0.3      0                        
124              GAGE1            4435-826         2.49     30.0     206.0    0.1      0                        
125              GAGE1            4435-819         0.26     90.0     67.0     0.1      0                        
126              GAGE1            4435-820         0.18     90.0     55.0     0.2      0                        
127              GAGE1            4435-827         3.42     30.0     241.0    0.1      0                        
130              GAGE1            4235-810         0.91     90.0     124.0    0.2      0                        
131              GAGE1            4235-811         0.57     80.0     99.0     0.2      0                        
132              GAGE1            4335-835         0.32     80.0     74.0     0.1      0                        
133              GAGE1            4335-504         0.12     90.0     46.0     1.3      0                        
134              GAGE1            4335-505         1.79     90.0     174.0    0.6      0                        
135              GAGE1            4335-508         0.16     90.0     52.0     0.3      0                        
136              GAGE1            4335-507         0.11     90.0     44.0     0.2      0                        
187              GAGE1            POND3            6.37     90.0     73.0     0.6      0                        

[SUBAREAS]
;;Subcatchment   N-Imperv   N-Perv     S-Imperv   S-Perv     PctZero    RouteTo    PctRouted 
;;-------------- ---------- ---------- ---------- ---------- ---------- ---------- ----------
1                0.015      0.05       0          0          25         OUTLET    
2                0.015      0.05       0          0          25         OUTLET    
3                0.015      0.05       0          0          25         OUTLET    
4                0.015      0.05       0          0          25         OUTLET    
5                0.015      0.05       0          0          25         OUTLET    
6                0.015      0.05       0          0          25         OUTLET    
7                0.015      0.05       0          0          25         OUTLET    
8                0.015      0.05       0          0          25         OUTLET    
9                0.015      0.05       0          0          25         OUTLET    
10               0.015      0.05       0          0          25         OUTLET    
13               0.015      0.05       0          0          25         OUTLET    
14               0.015      0.05       0          0          25         OUTLET    
15               0.015      0.05       0          0          25         OUTLET    
16               0.015      0.05       0          0          25         OUTLET    
17               0.015      0.05       0          0          25         OUTLET    
18               0.015      0.05       0          0          25         OUTLET    
19               0.015      0.05       0          0          25         OUTLET    
22               0.015      0.05       0          0          25         OUTLET    
23               0.015      0.05       0          0          25         OUTLET    
24               0.015      0.05       0          0          25         OUTLET    
25               0.015      0.05       0          0          25         OUTLET    
26               0.015      0.05       0          0          25         OUTLET    
27               0.015      0.05       0          0          25         OUTLET    
28               0.015      0.05       0          0          25         OUTLET    
29               0.015      0.05       0          0          25         OUTLET    
30               0.015      0.05       0          0          25         OUTLET    
31               0.015      0.05       0          0          25         OUTLET    
32               0.015      0.05       0          0          25         OUTLET    
33               0.015      0.05       0          0          25         OUTLET    
34               0.015      0.05       0          0          25         OUTLET    
35               0.015      0.05       0          0          25         OUTLET    
36               0.015      0.05       0          0          25         OUTLET    
38               0.015      0.05       0          0          25         OUTLET    
39               0.015      0.05       0          0          25         OUTLET    
40               0.015      0.05       0          0          25         OUTLET    
41               0.015      0.05       0          0          25         OUTLET    
42               0.015      0.05       0          0          25         OUTLET    
43               0.015      0.05       0          0          25         OUTLET    
44               0.015      0.05       0          0          25         OUTLET    
45               0.015      0.05       0          0          25         OUTLET    
46               0.015      0.05       0          0          25         OUTLET    
47               0.015      0.05       0          0          25         OUTLET    
49               0.015      0.05       0          0          25         OUTLET    
50               0.015      0.05       0          0          25         OUTLET    
51               0.015      0.05       0          0          25         OUTLET    
52               0.015      0.05       0          0          25         OUTLET    
53               0.015      0.05       0          0          25         OUTLET    
54               0.015      0.05       0          0          25         OUTLET    
55               0.015      0.05       0          0          25         OUTLET    
56               0.015      0.05       0          0          25         OUTLET    
57               0.015      0.05       0          0          25         OUTLET    
58               0.015      0.05       0          0          25         OUTLET    
59               0.015      0.05       0          0          25         OUTLET    
60               0.015      0.05       0          0          25         OUTLET    
61               0.015      0.05       0          0          25         OUTLET    
62               0.015      0.05       0          0          25         OUTLET    
63               0.015      0.05       0          0          25         OUTLET    
64               0.015      0.05       0          0          25         OUTLET    
65               0.015      0.05       0          0          25         OUTLET    
66               0.015      0.05       0          0          25         OUTLET    
67               0.015      0.05       0          0          25         OUTLET    
68               0.015      0.05       0          0          25         OUTLET    
69               0.015      0.05       0          0          25         OUTLET    
70               0.015      0.05       0          0          25         OUTLET    
71               0.015      0.05       0          0          25         OUTLET    
107              0.015      0.05       0          0          25         OUTLET    
108              0.015      0.05       0          0          25         OUTLET    
109              0.015      0.05       0          0          25         OUTLET    
110              0.015      0.05       0          0          25         OUTLET    
111              0.015      0.05       0          0          25         OUTLET    
112              0.015      0.05       0          0          25         OUTLET    
113              0.015      0.05       0          0          25         OUTLET    
114              0.015      0.05       0          0          25         OUTLET    
115              0.015      0.05       0          0          25         OUTLET    
116              0.015      0.05       0          0          25         OUTLET    
117              0.015      0.05       0          0          25         OUTLET    
118              0.015      0.05       0          0          25         OUTLET    
119              0.015      0.05       0          0          25         OUTLET    
120              0.015      0.05       0          0          25         OUTLET    
121              0.015      0.05       0          0          25         OUTLET    
122              0.015      0.05       0          0          25         OUTLET    
123              0.015      0.05       0          0          25         OUTLET    
124              0.015      0.05       0          0          25         OUTLET    
125              0.015      0.05       0          0          25         OUTLET    
126              0.015      0.05       0          0          25         OUTLET    
127              0.015      0.05       0          0          25         OUTLET    
130              0.015      0.05       0          0          25         OUTLET    
131              0.015      0.05       0          0          25         OUTLET    
132              0.015      0.05       0          0          25         OUTLET    
133              0.015      0.05       0          0          25         OUTLET    
134              0.015      0.05       0          0          25         OUTLET    
135              0.015      0.05       0          0          25         OUTLET    
136              0.015      0.05       0          0          25         OUTLET    
187              0.015      0.05       0          0          25         OUTLET    

[INFILTRATION]
;;Subcatchment   Param1     Param2     Param3     Param4     Param5    
;;-------------- ---------- ---------- ---------- ---------- ----------
1                200.0      12.7       3.6        0.02315    0         
2                200.0      12.7       3.6        0.02315    0         
3                200.0      12.7       3.6        0.02315    0         
4                200.0      12.7       3.6        0.02315    0         
5                200.0      12.7       3.6        0.02315    0         
6                200.0      12.7       3.6        0.02315    0         
7                200.0      12.7       3.6        0.02315    0         
8                200.0      12.7       3.6        0.02315    0         
9                200.0      12.7       3.6        0.02315    0         
10               200.0      12.7       3.6        0.02315    0         
13               200.0      12.7       3.6        0.02315    0         
14               200.0      12.7       3.6        0.02315    0         
15               200.0      12.7       3.6        0.02315    0         
16               200.0      12.7       3.6        0.02315    0         
17               200.0      12.7       3.6        0.02315    0         
18               200.0      12.7       3.6        0.02315    0         
19               200.0      12.7       3.6        0.02315    0         
22               200.0      12.7       3.6        0.02315    0         
23               200.0      12.7       3.6        0.02315    0         
24               200.0      12.7       3.6        0.02315    0         
25               200.0      12.7       3.6        0.02315    0         
26               200.0      12.7       3.6        0.02315    0         
27               200.0      12.7       3.6        0.02315    0         
28               200.0      12.7       3.6        0.02315    0         
29               200.0      12.7       3.6        0.02315    0         
30               200.0      12.7       3.6        0.02315    0         
31               200.0      12.7       3.6        0.02315    0         
32               200.0      12.7       3.6        0.02315    0         
33               200.0      12.7       3.6        0.02315    0         
34               200.0      12.7       3.6        0.02315    0         
35               200.0      12.7       3.6        0.02315    0         
36               200.0      12.7       3.6        0.02315    0         
38               200.0      12.7       3.6        0.02315    0         
39               200.0      12.7       3.6        0.02315    0         
40               200.0      12.7       3.6        0.02315    0         
41               200.0      12.7       3.6        0.02315    0         
42               200.0      12.7       3.6        0.02315    0         
43               200.0      12.7       3.6        0.02315    0         
44               200.0      12.7       3.6        0.02315    0         
45               200.0      12.7       3.6        0.02315    0         
46               200.0      12.7       3.6        0.02315    0         
47               200.0      12.7       3.6        0.02315    0         
49               200.0      12.7       3.6        0.02315    0         
50               200.0      12.7       3.6        0.02315    0         
51               200.0      12.7       3.6        0.02315    0         
52               200.0      12.7       3.6        0.02315    0         
53               200.0      12.7       3.6        0.02315    0         
54               200.0      12.7       3.6        0.02315    0         
55               200.0      12.7       3.6        0.02315    0         
56               200.0      12.7       3.6        0.02315    0         
57               200.0      12.7       3.6        0.02315    0         
58               200.0      12.7       3.6        0.02315    0         
59               200.0      12.7       3.6        0.02315    0         
60               200.0      12.7       3.6        0.02315    0         
61               200.0      12.7       3.6        0.02315    0         
62               200.0      12.7       3.6        0.02315    0         
63               200.0      12.7       3.6        0.02315    0         
64               200.0      12.7       3.6        0.02315    0         
65               200.0      12.7       3.6        0.02315    0         
66               200.0      12.7       3.6        0.02315    0         
67               200.0      12.7       3.6        0.02315    0         
68               200.0      12.7       3.6        0.02315    0         
69               200.0      12.7       3.6        0.02315    0         
70               200.0      12.7       3.6        0.02315    0         
71               200.0      12.7       3.6        0.02315    0         
107              200.0      12.7       3.6        0.02315    0         
108              200.0      12.7       3.6        0.02315    0         
109              200.0      12.7       3.6        0.02315    0         
110              200.0      12.7       3.6        0.02315    0         
111              200.0      12.7       3.6        0.02315    0         
112              200.0      12.7       3.6        0.02315    0         
113              200.0      12.7       3.6        0.02315    0         
114              200.0      12.7       3.6        0.02315    0         
115              200.0      12.7       3.6        0.02315    0         
116              200.0      12.7       3.6        0.02315    0         
117              200.0      12.7       3.6        0.02315    0         
118              200.0      12.7       3.6        0.02315    0         
119              200.0      12.7       3.6        0.02315    0         
120              200.0      12.7       3.6        0.02315    0         
121              200.0      12.7       3.6        0.02315    0         
122              200.0      12.7       3.6        0.02315    0         
123              200.0      12.7       3.6        0.02315    0         
124              200.0      12.7       3.6        0.02315    0         
125              200.0      12.7       3.6        0.02315    0         
126              200.0      12.7       3.6        0.02315    0         
127              200.0      12.7       3.6        0.02315    0         
130              200.0      12.7       3.6        0.02315    0         
131              200.0      12.7       3.6        0.02315    0         
132              200.0      12.7       3.6        0.02315    0         
133              200.0      12.7       3.6        0.02315    0         
134              200.0      12.7       3.6        0.02315    0         
135              200.0      12.7       3.6        0.02315    0         
136              200.0      12.7       3.6        0.02315    0         
187              200.0      12.7       3.6        0.02315    0         

[JUNCTIONS]
;;Name           Elevation  MaxDepth   InitDepth  SurDepth   Aponded   
;;-------------- ---------- ---------- ---------- ---------- ----------
4235-810         13.88      1.76       0          0          0         
4235-811         13.59      1.96       0          0          0         
4334-809         13.37      1.61       0          0          0         
4335-01          12.54      3.55       0          0          0         
4335-02          12.40      3.30       0          0          0         
4335-03          12.29      3.07       0          0          0         
4335-04          12.24      3.22       0          0          0         
4335-05          12.32      2.94       0          0          0         
4335-06          12.02      2.95       0          0          0         
4335-07          12.11      2.78       0          0          0         
4335-08          11.88      2.82       0          0          0         
4335-09          12.50      3.18       0          0          0         
4335-10          11.90      2.10       0          0          0         
4335-11          11.90      2.46       0          0          0         
4335-12          11.10      3.03       0          0          0         
4335-13          13.47      2.22       0          0          0         
4335-14          13.00      2.70       0          0          0         
4335-504         13.17      2.61       0          0          0         
4335-505         13.00      3.03       0          0          0         
4335-506         13.95      2.14       0          0          0         
4335-507         13.95      2.12       0          0          0         
4335-508         14.14      1.84       0          0          0         
4335-801         11.94      2.99       0          0          0         
4335-802         11.32      4.38       0          0          0         
4335-803         12.42      3.69       0          0          0         
4335-804         12.13      2.92       0          0          0         
4335-805         11.82      2.94       0          0          0         
4335-806         11.60      3.57       0          0          0         
4335-807         12.60      2.21       0          0          0         