[TITLE]
;;Project Title/Notes
titleName
Huishui	Co.

[OPTIONS]
;;Option             Value
FLOW_UNITS           CMS
INFILTRATION         HORTON
FLOW_ROUTING         DYNWAVE
LINK_OFFSETS         ELEVATION
MIN_SLOPE            0
ALLOW_PONDING        YES
SKIP_STEADY_STATE    NO

START_DATE           06/03/2021
START_TIME           16:00:00
REPORT_START_DATE    06/03/2021
REPORT_START_TIME    21:00:00
END_DATE             06/04/2021
END_TIME             21:01:00
SWEEP_START          01/01
SWEEP_END            12/31
DRY_DAYS             5
REPORT_STEP          01:00:00
WET_STEP             00:01:00
DRY_STEP             00:01:00
ROUTING_STEP         0:00:10 
RULE_STEP            00:00:00

INERTIAL_DAMPING     PARTIAL
NORMAL_FLOW_LIMITED  SLOPE
FORCE_MAIN_EQUATION  H-W
VARIABLE_STEP        0.75
LENGTHENING_STEP     0
MIN_SURFAREA         12.557
MAX_TRIALS           8
HEAD_TOLERANCE       0.005
SYS_FLOW_TOL         5
LAT_FLOW_TOL         5
MINIMUM_STEP         0.5
THREADS              2

[EVAPORATION]
;;Data Source    Parameters
;;-------------- ----------------
CONSTANT         0
DRY_ONLY         NO

[RAINGAGES]
;;Name           Format    Interval SCF      Source    
;;-------------- --------- ------ ------ ----------
RG1              INTENSITY 1    1        TIMESERIES RainSeries1     

[SUBCATCHMENTS]
;;Name           Rain Gage        Outlet           Area     %Imperv  Width    %Slope   CurbLen  SnowPack        
;;-------------- ---------------- ---------------- -------- -------- -------- -------- -------- ----------------
3                RG1              5766             0.59     0        500      0.5      0                        
4                RG1              18183            1.69     0        500      0.5      0                        
5                RG1              18184            1.8      0        500      0.5      0                        
6                RG1              5723             0.77     0        500      0.5      0                        
7                RG1              5757             1.99     0        500      0.5      0                        
8                RG1              5716             0.67     0        500      0.5      0                        
9                RG1              5719             0.72     0        500      0.5      0                        
10               RG1              5805             1.46     0        500      0.5      0                        
11               RG1              4934             0.46     0        500      0.5      0                        
12               RG1              4968             0.77     0        500      0.5      0                        
13               RG1              4940             1.62     0        500      0.5      0                        
14               RG1              5715             0.53     90       500      0.5      0                        
15               RG1              5721             1.74     90       500      0.5      0                        
16               RG1              5725             0.79     90       500      0.5      0                        
17               RG1              5741             1.31     90       500      0.5      0                        
18               RG1              24100            1.35     90       500      0.5      0                        
19               RG1              5747             1.39     90       500      0.5      0                        
20               RG1              5745             1.03     90       500      0.5      0                        
21               RG1              5733             1.63     90       500      0.5      0                        
22               RG1              5728             0.51     90       500      0.5      0                        
23               RG1              5734             0.94     90       500      0.5      0                        
24               RG1              5847             1.52     90       500      0.5      0                        
25               RG1              23767            0.85     90       500      0.5      0                        
26               RG1              5862             0.82     90       500      0.5      0                        
27               RG1              5902             1.8      90       500      0.5      0                        
28               RG1              5784             1.08     90       500      0.5      0                        
29               RG1              5776             0.89     90       500      0.5      0                        
30               RG1              5780             1.55     90       500      0.5      0                        
31               RG1              5774             0.76     90       500      0.5      0                        
32               RG1              5771             0.56     90       500      0.5      0                        
33               RG1              5768             0.7      90       500      0.5      0                        
34               RG1              5765             0.99     90       500      0.5      0                        
35               RG1              5823             1.84     90       500      0.5      0                        
36               RG1              5819             2.2      90       500      0.5      0                        
37               RG1              5790             0.67     90       500      0.5      0                        
38               RG1              5793             0.88     90       500      0.5      0                        
39               RG1              5791             1.26     90       500      0.5      0                        
40               RG1              5825             1.43     90       500      0.5      0                        
41               RG1              5794             1.16     90       500      0.5      0                        
42               RG1              5827             1        90       500      0.5      0                        
43               RG1              5904             1.85     90       500      0.5      0                        
44               RG1              5832             1.48     90       500      0.5      0                        
45               RG1              5840             1.69     90       500      0.5      0                        
46               RG1              5820             0.62     90       500      0.5      0                        
47               RG1              5864             1.88     90       500      0.5      0                        
48               RG1              5883             1.2      90       500      0.5      0                        
49               RG1              5844             2.1      90       500      0.5      0                        
50               RG1              5910             1.1      90       500      0.5      0                        
51               RG1              5858             1.31     90       500      0.5      0                        
52               RG1              5856             1.44     90       500      0.5      0                        
53               RG1              5909             0.9      90       500      0.5      0                        
54               RG1              5880             0.62     90       500      0.5      0                        
55               RG1              5906             0.78     90       500      0.5      0                        
56               RG1              5878             1.16     90       500      0.5      0                        
57               RG1              5879             0.51     90       500      0.5      0                        
58               RG1              4973             0.92     90       500      0.5      0                        
59               RG1              5876             0.83     90       500      0.5      0                        
60               RG1              4974             0.95     90       500      0.5      0                        
61               RG1              4983             0.54     90       500      0.5      0                        
62               RG1              4985             1.54     90       500      0.5      0                        
63               RG1              4909             1.46     90       500      0.5      0                        
64               RG1              4990             1.04     90       500      0.5      0                        
65               RG1              4985             0.84     90       500      0.5      0                        
66               RG1              5905             1.69     90       500      0.5      0                        
67               RG1              4948             1.4      90       500      0.5      0                        
68               RG1              5907             1.41     90       500      0.5      0                        
69               RG1              4971             1.06     90       500      0.5      0                        
70               RG1              4975             0.92     90       500      0.5      0                        
71               RG1              4976             0.92     90       500      0.5      0                        
72               RG1              4905             0.97     90       500      0.5      0                        
73               RG1              4948             1.02     90       500      0.5      0                        
74               RG1              4951             1.05     90       500      0.5      0                        
75               RG1              4922             1.15     90       500      0.5      0                        
76               RG1              4903             1.07     90       500      0.5      0                        
77               RG1              5804             0.75     90       500      0.5      0                        
78               RG1              5807             0.53     90       500      0.5      0                        
79               RG1              5810             0.64     90       500      0.5      0                        
80               RG1              5809             0.43     90       500      0.5      0                        
81               RG1              5893             0.48     90       500      0.5      0                        
82               RG1              5897             1.01     90       500      0.5      0                        
83               RG1              5892             0.7      90       500      0.5      0                        
84               RG1              5898             1.39     90       500      0.5      0                        
85               RG1              4947             2        90       500      0.5      0                        
86               RG1              5815             1.05     90       500      0.5      0                        
87               RG1              5812             0.69     90       500      0.5      0                        
88               RG1              5799             0.74     90       500      0.5      0                        
89               RG1              4875             0.6      90       500      0.5      0                        
90               RG1              4875             0.7      90       500      0.5      0                        
91               RG1              5798             1.4      90       500      0.5      0                        
92               RG1              5799             0.65     90       500      0.5      0                        
93               RG1              4929             1.04     90       500      0.5      0                        
94               RG1              5888             0.5      90       500      0.5      0                        
95               RG1              5887             0.31     90       500      0.5      0                        
96               RG1              4930             1.28     90       500      0.5      0                        
97               RG1              4949             1.16     90       500      0.5      0                        
98               RG1              4931             1.04     90       500      0.5      0                        
99               RG1              4932             0.76     90       500      0.5      0                        
100              RG1              4932             0.9      90       500      0.5      0                        
101              RG1              4952             1.01     90       500      0.5      0                        
102              RG1              4933             0.58     90       500      0.5      0                        
103              RG1              4933             0.57     90       500      0.5      0                        
104              RG1              4936             0.72     90       500      0.5      0                        
105              RG1              4937             0.51     90       500      0.5      0                        
106              RG1              4956             0.69     90       500      0.5      0                        
107              RG1              4958             1.03     90       500      0.5      0                        
108              RG1              4946             0.67     90       500      0.5      0                        
109              RG1              4936             0.79     90       500      0.5      0                        
110              RG1              4878             1.05     90       500      0.5      0                        
111              RG1              4890             4.49     90       500      0.5      0                        
112              RG1              4880             2.16     90       500      0.5      0                        
113              RG1              4899             1.58     90       500      0.5      0                        
114              RG1              4963             0.97     90       500      0.5      0                        
115              RG1              4924             0.89     90       500      0.5      0                        
116              RG1              4961             1.63     90       500      0.5      0                        
117              RG1              4903             1.35     90       500      0.5      0                        
118              RG1              4981             3.45     90       500      0.5      0                        
119              RG1              4896             2.55     90       500      0.5      0                        
120              RG1              4893             2.97     90       500      0.5      0                        
121              RG1              4891             2        90       500      0.5      0                        
122              RG1              4883             2.14     90       500      0.5      0                        
123              RG1              4884             3.34     90       500      0.5      0                        
124              RG1              4926             3.29     90       500      0.5      0                        
125              RG1              4992             2.1      90       500      0.5      0                        
S1               RG1              1                4        50       400      0.5      0                        
S2               RG1              2                4        50       400      0.5      0                        

[SUBAREAS]
;;Subcatchment   N-Imperv   N-Perv     S-Imperv   S-Perv     PctZero    RouteTo    PctRouted 
;;-------------- ---------- ---------- ---------- ---------- ---------- ---------- ----------
3                0.01       0.1        2          7          25         OUTLET    
4                0.01       0.1        2          7          25         OUTLET    
5                0.01       0.1        2          7          25         OUTLET    
6                0.01       0.1        2          7          25         OUTLET    
7                0.01       0.1        2          7          25         OUTLET    
8                0.01       0.1        2          7          25         OUTLET    
9                0.01       0.1        2          7          25         OUTLET    
10               0.01       0.1        2          7          25         OUTLET    
11               0.01       0.1        2          7          25         OUTLET    
12               0.01       0.1        2          7          25         OUTLET    
13               0.01       0.1        2          7          25         OUTLET    
14               0.01       0.1        2          7          25         OUTLET    
15               0.01       0.1        2          7          25         OUTLET    
16               0.01       0.1        2          7          25         OUTLET    
17               0.01       0.1        2          7          25         OUTLET    
18               0.01       0.1        2          7          25         OUTLET    
19               0.01       0.1        2          7          25         OUTLET    
20               0.01       0.1        2          7          25         OUTLET    
21               0.01       0.1        2          7          25         OUTLET    
22               0.01       0.1        2          7          25         OUTLET    
23               0.01       0.1        2          7          25         OUTLET    
24               0.01       0.1        2          7          25         OUTLET    
25               0.01       0.1        2          7          25         OUTLET    
26               0.01       0.1        2          7          25         OUTLET    
27               0.01       0.1        2          7          25         OUTLET    
28               0.01       0.1        2          7          25         OUTLET    
29               0.01       0.1        2          7          25         OUTLET    
30               0.01       0.1        2          7          25         OUTLET    
31               0.01       0.1        2          7          25         OUTLET    
32               0.01       0.1        2          7          25         OUTLET    
33               0.01       0.1        2          7          25         OUTLET    
34               0.01       0.1        2          7          25         OUTLET    
35               0.01       0.1        2          7          25         OUTLET    
36               0.01       0.1        2          7          25         OUTLET    
37               0.01       0.1        2          7          25         OUTLET    
38               0.01       0.1        2          7          25         OUTLET    
39               0.01       0.1        2          7          25         OUTLET    
40               0.01       0.1        2          7          25         OUTLET    
41               0.01       0.1        2          7          25         OUTLET    
42               0.01       0.1        2          7          25         OUTLET    
43               0.01       0.1        2          7          25         OUTLET    
44               0.01       0.1        2          7          25         OUTLET    
45               0.01       0.1        2          7          25         OUTLET    
46               0.01       0.1        2          7          25         OUTLET    
47               0.01       0.1        2          7          25         OUTLET    
48               0.01       0.1        2          7          25         OUTLET    
49               0.01       0.1        2          7          25         OUTLET    
50               0.01       0.1        2          7          25         OUTLET    
51               0.01       0.1        2          7          25         OUTLET    
52               0.01       0.1        2          7          25         OUTLET    
53               0.01       0.1        2          7          25         OUTLET    
54               0.01       0.1        2          7          25         OUTLET    
55               0.01       0.1        2          7          25         OUTLET    
56               0.01       0.1        2          7          25         OUTLET    
57               0.01       0.1        2          7          25         OUTLET    
58               0.01       0.1        2          7          25         OUTLET    
59               0.01       0.1        2          7          25         OUTLET    
60               0.01       0.1        2          7          25         OUTLET    
61               0.01       0.1        2          7          25         OUTLET    
62               0.01       0.1        2          7          25         OUTLET    
63               0.01       0.1        2          7          25         OUTLET    
64               0.01       0.1        2          7          25         OUTLET    
65               0.01       0.1        2          7          25         OUTLET    
66               0.01       0.1        2          7          25         OUTLET    
67               0.01       0.1        2          7          25         OUTLET    
68               0.01       0.1        2          7          25         OUTLET    
69               0.01       0.1        2          7          25         OUTLET    
70               0.01       0.1        2          7          25         OUTLET    
71               0.01       0.1        2          7          25         OUTLET    
72               0.01       0.1        2          7          25         OUTLET    
73               0.01       0.1        2          7          25         OUTLET    
74               0.01       0.1        2          7          25         OUTLET    
75               0.01       0.1        2          7          25         OUTLET    
76               0.01       0.1        2          7          25         OUTLET    
77               0.01       0.1        2          7          25         OUTLET    
78               0.01       0.1        2          7          25         OUTLET    
79               0.01       0.1        2          7          25         OUTLET    
80               0.01       0.1        2          7          25         OUTLET    
81               0.01       0.1        2          7          25         OUTLET    
82               0.01       0.1        2          7          25         OUTLET    
83               0.01       0.1        2          7          25         OUTLET    
84               0.01       0.1        2          7          25         OUTLET    
85               0.01       0.1        2          7          25         OUTLET    
86               0.01       0.1        2          7          25         OUTLET    
87               0.01       0.1        2          7          25         OUTLET    
88               0.01       0.1        2          7          25         OUTLET    
89               0.01       0.1        2          7          25         OUTLET    
90               0.01       0.1        2          7          25         OUTLET    
91               0.01       0.1        2          7          25         OUTLET    
92               0.01       0.1        2          7          25         OUTLET    
93               0.01       0.1        2          7          25         OUTLET    
94               0.01       0.1        2          7          25         OUTLET    
95               0.01       0.1        2          7          25         OUTLET    
96               0.01       0.1        2          7          25         OUTLET    
97               0.01       0.1        2          7          25         OUTLET    
98               0.01       0.1        2          7          25         OUTLET    
99               0.01       0.1        2          7          25         OUTLET    
100              0.01       0.1        2          7          25         OUTLET    
101              0.01       0.1        2          7          25         OUTLET    
102              0.01       0.1        2          7          25         OUTLET    
103              0.01       0.1        2          7          25         OUTLET    
104              0.01       0.1        2          7          25         OUTLET    
105              0.01       0.1        2          7          25         OUTLET    
106              0.01       0.1        2          7          25         OUTLET    
107              0.01       0.1        2          7          25         OUTLET    
108              0.01       0.1        2          7          25         OUTLET    
109              0.01       0.1        2          7          25         OUTLET    
110              0.01       0.1        2          7          25         OUTLET    
111              0.01       0.1        2          7          25         OUTLET    
112              0.01       0.1        2          7          25         OUTLET    
113              0.01       0.1        2          7          25         OUTLET    
114              0.01       0.1        2          7          25         OUTLET    
115              0.01       0.1        2          7          25         OUTLET    
116              0.01       0.1        2          7          25         OUTLET    
117              0.01       0.1        2          7          25         OUTLET    
118              0.01       0.1        2          7          25         OUTLET    
119              0.01       0.1        2          7          25         OUTLET    
120              0.01       0.1        2          7          25         OUTLET    
121              0.01       0.1        2          7          25         OUTLET    
122              0.01       0.1        2          7          25         OUTLET    
123              0.01       0.1        2          7          25         OUTLET    
124              0.01       0.1        2          7          25         OUTLET    
125              0.01       0.1        2          7          25         OUTLET    
S1               0.01       0.1        0.05       0.05       25         OUTLET    
S2               0.01       0.1        0.05       0.05       25         OUTLET    

[INFILTRATION]
;;Subcatchment   MaxRate    MinRate    Decay      DryTime    MaxInfil  
;;-------------- ---------- ---------- ---------- ---------- ----------
3                3          0.5        4          7          0         
4                3          0.5        4          7          0         
5                3          0.5        4          7          0         
6                3          0.5        4          7          0         
7                3          0.5        4          7          0         
8                3          0.5        4          7          0         
9                3          0.5        4          7          0         
10               3          0.5        4          7          0         
11               3          0.5        4          7          0         
12               3          0.5        4          7          0         
13               3          0.5        4          7          0         
14               3          0.5        4          7          0         
15               3          0.5        4          7          0         
16               3          0.5        4          7          0         
17               3          0.5        4          7          0         
18               3          0.5        4          7          0         
19               3          0.5        4          7          0         
20               3          0.5        4          7          0         
21               3          0.5        4          7          0         
22               3          0.5        4          7          0         
23               3          0.5        4          7          0         
24               3          0.5        4          7          0         
25               3          0.5        4          7          0         
26               3          0.5        4          7          0         
27               3          0.5        4          7          0         
28               3          0.5        4          7          0         
29               3          0.5        4          7          0         
30               3          0.5        4          7          0         
31               3          0.5        4          7          0         
32               3          0.5        4          7          0         
33               3          0.5        4          7          0         
34               3          0.5        4          7          0         
35               3          0.5        4          7          0         
36               3          0.5        4          7          0         
37               3          0.5        4          7          0         
38               3          0.5        4          7          0         
39               3          0.5        4          7          0         
40               3          0.5        4          7          0         
41               3          0.5        4          7          0         
42               3          0.5        4          7          0         
43               3          0.5        4          7          0         
44               3          0.5        4          7          0         
45               3          0.5        4          7          0         
46               3          0.5        4          7          0         