[TITLE]
;;Project Title/Notes
titleName
Huishui	Co.

[OPTIONS]
;;Option             Value
FLOW_UNITS	CMS
INFILTRATION	HORTON
FLOW_ROUTING	DYNWAVE
LINK_OFFSETS	ELEVATION
MIN_SLOPE	0
ALLOW_PONDING	YES
SKIP_STEADY_STATE	NO
START_DATE	06/03/2021
START_TIME	16:00:00
REPORT_START_DATE	06/03/2021
REPORT_START_TIME	16:00:00
END_DATE	06/04/2021
END_TIME	21:01:00
SWEEP_START	01/01
SWEEP_END	12/31
DRY_DAYS	5
REPORT_STEP	01:00:00
WET_STEP	00:01:00
DRY_STEP	00:01:00
ROUTING_STEP	0:00:10
RULE_STEP	00:00:00
INERTIAL_DAMPING	PARTIAL
NORMAL_FLOW_LIMITED	SLOPE
FORCE_MAIN_EQUATION	H-W
VARIABLE_STEP	0.75
LENGTHENING_STEP	0
MIN_SURFAREA	12.557
MAX_TRIALS	8
HEAD_TOLERANCE	0.0015
SYS_FLOW_TOL	5
LAT_FLOW_TOL	5
MINIMUM_STEP	0.5
THREADS	2

[EVAPORATION]
;;Data Source    Parameters
;;-------------- ----------------
CONSTANT	0
DRY_ONLY	NO

[RAINGAGES]
;;Name           Format    Interval SCF      Source
;;-------------- --------- ------ ------ ----------
RG1	INTENSITY	1	1	TIMESERIES	RainSeries1

[SUBCATCHMENTS]
;;Name           Rain Gage        Outlet           Area     '%'Imperv  Width    '%'Slope   CurbLen
;;-------------- ---------------- ---------------- -------- -------- -------- -------- --------
1	RG1	4148-451	0.4	96.5591	500	0.5	0
2	RG1	4149-64	0.32	65.362	500	0.5	0
5	RG1	4149-46	1.81	10.0145	500	0.5	0
6	RG1	4149-48	0.86	0.636301	500	0.5	0
7	RG1	4149-50	1.19	3.74609	500	0.5	0
8	RG1	4149-69	0.72	56.3943	500	0.5	0
9	RG1	4149-74	0.46	17.7111	500	0.5	0
10	RG1	4149-78	1.04	31.8654	500	0.5	0
11	RG1	4149-79	0.7	36.5072	500	0.5	0
14	RG1	4149-80	0.75	39.8321	500	0.5	0
15	RG1	4249-70	0.59	67.3045	500	0.5	0
16	RG1	4249-69	0.28	97.3037	500	0.5	0
17	RG1	4149-77	1.11	30.3166	500	0.5	0
18	RG1	4249-68	0.69	43.9841	500	0.5	0
19	RG1	4149-75	0.97	95.1568	500	0.5	0
20	RG1	4149-72	0.65	50.4082	500	0.5	0
21	RG1	4149-76	0.44	93.7011	500	0.5	0
22	RG1	4148-09	1.61	39.3652	500	0.5	0
23	RG1	4248-48	1.01	51.1727	500	0.5	0
24	RG1	4148-27	1.47	68.2628	500	0.5	0
25	RG1	4148-11	1.04	4.11688	500	0.5	0
26	RG1	4148-08	1.19	73.1624	500	0.5	0
27	RG1	4148-10	1.16	86.8635	500	0.5	0
28	RG1	4148-06	0.98	10.6371	500	0.5	0
29	RG1	4248-47	0.94	62.6184	500	0.5	0
30	RG1	4148-04	1	25.6901	500	0.5	0
31	RG1	4148-231	1.16	26.862	500	0.5	0
32	RG1	4149-70	1.38	57.6684	500	0.5	0
33	RG1	4149-63	1.21	81.6083	500	0.5	0
34	RG1	4149-F4	0.58	10.3548	500	0.5	0
35	RG1	4148-63	1.1	59.1104	500	0.5	0
36	RG1	4149-68	0.58	51.6838	500	0.5	0
37	RG1	4148-39	1.13	99.6399	500	0.5	0
38	RG1	4149-42	1.08	3.00298	500	0.5	0
39	RG1	4149-F4	1.1	43.5584	500	0.5	0
40	RG1	4148-62	0.76	67.0268	500	0.5	0
41	RG1	4149-40	1.01	44.1886	500	0.5	0
42	RG1	4149-39	0.94	15.4604	500	0.5	0
43	RG1	4148-61	1.37	70.634	500	0.5	0
44	RG1	4148-57	0.48	10.9316	500	0.5	0
45	RG1	4148-59	0.52	40.5615	500	0.5	0
46	RG1	4148-52	0.9	54.3694	500	0.5	0
47	RG1	4148-54	1.06	28.4489	500	0.5	0
48	RG1	4148-70	0.92	43.2258	500	0.5	0
49	RG1	4148-55	0.76	37.7523	500	0.5	0
50	RG1	4148-37	0.51	85.4154	500	0.5	0
51	RG1	4148-36	0.62	62.7451	500	0.5	0
52	RG1	4148-35	1.18	41.5824	500	0.5	0
53	RG1	4148-34	1.11	96.0494	500	0.5	0
54	RG1	4148-33	1.33	92.1157	500	0.5	0
55	RG1	4148-25	1.13	24.3122	500	0.5	0
56	RG1	4148-41	0.62	46.5553	500	0.5	0
57	RG1	4148-68	1.14	49.7215	500	0.5	0
58	RG1	4148-42	1.13	76.3149	500	0.5	0
59	RG1	4148-66	1.59	64.4739	500	0.5	0
60	RG1	4148-40	1.21	23.2349	500	0.5	0
61	RG1	4148-44	0.56	48.455	500	0.5	0
62	RG1	4148-22	1.19	36.6323	500	0.5	0
63	RG1	4148-43	1.46	97.7554	500	0.5	0
64	RG1	4148-19	1.5	57.229	500	0.5	0
65	RG1	4148-40	1.28	16.5377	500	0.5	0
66	RG1	4147-07	0.77	47.5563	500	0.5	0
67	RG1	4148-20	0.69	70.1976	500	0.5	0
68	RG1	4148-21	0.87	9.06081	500	0.5	0
69	RG1	4148-18	0.79	64.0528	500	0.5	0
70	RG1	4148-03	0.96	8.22309	500	0.5	0
71	RG1	4248-45	0.97	9.69558	500	0.5	0
72	RG1	4248-44	1	7.00694	500	0.5	0
73	RG1	4148-16	1.35	2.69627	500	0.5	0
74	RG1	4248-43	1.67	61.7472	500	0.5	0
75	RG1	4148-80	1.77	30.5043	500	0.5	0
76	RG1	4147-04	0.98	37.4273	500	0.5	0
77	RG1	4247-62	1.21	37.6287	500	0.5	0
78	RG1	4147-45	0.64	96.5118	500	0.5	0
79	RG1	4147-48	0.69	85.0935	500	0.5	0
80	RG1	4147-44	0.68	18.7243	500	0.5	0
81	RG1	4147-49	0.75	56.8246	500	0.5	0
82	RG1	4147-52	1.05	46.8513	500	0.5	0
83	RG1	4147-46	0.92	8.90822	500	0.5	0
84	RG1	4147-F2	1.14	88.2567	500	0.5	0
S1	RG1	12	4	38.2483	400	0.5	0
S2	RG1	13	4	88.6107	400	0.5	0

[SUBAREAS]
;;Subcatchment   N-Imperv   N-Perv     S-Imperv   S-Perv     PctZero    RouteTo    PctRouted 
;;-------------- ---------- ---------- ---------- ---------- ---------- ---------- ----------
1	0.0190001	0.0665113	4.11002	2.88174	25	OUTLET	0
2	0.0133975	0.0459739	2.63088	1.66957	25	OUTLET	0
5	0.0214474	0.0598325	4.7599	1.05135	25	OUTLET	0
6	0.0242544	0.0798444	4.86984	4.23247	25	OUTLET	0
7	0.0203459	0.0661909	2.37873	0.396124	25	OUTLET	0
8	0.0155821	0.0319615	4.51354	2.85786	25	OUTLET	0
9	0.024872	0.072748	2.86778	0.67483	25	OUTLET	0
10	0.0190095	0.0364733	0.511711	2.70138	25	OUTLET	0
11	0.0201868	0.036239	3.26711	2.81018	25	OUTLET	0
14	0.0154159	0.0407013	1.56588	2.26268	25	OUTLET	0
15	0.0217817	0.0672621	4.65911	3.52895	25	OUTLET	0
16	0.014471	0.0376745	0.390326	2.81613	25	OUTLET	0
17	0.0209725	0.0510735	4.39658	0.857862	25	OUTLET	0
18	0.0247909	0.0430204	2.93805	1.74868	25	OUTLET	0
19	0.0165257	0.0513619	3.1635	4.47471	25	OUTLET	0
20	0.0155346	0.0256287	1.5462	1.43778	25	OUTLET	0
21	0.0209947	0.041116	1.551	3.38605	25	OUTLET	0
22	0.0143766	0.0643552	4.97398	2.9324	25	OUTLET	0
23	0.024993	0.0263969	3.53506	2.69841	25	OUTLET	0
24	0.0182947	0.0322683	2.61593	4.28099	25	OUTLET	0
25	0.0223015	0.0499867	2.28679	0.191959	25	OUTLET	0
26	0.0183601	0.0787265	3.72747	2.06531	25	OUTLET	0
27	0.0111619	0.0438553	4.50729	0.85214	25	OUTLET	0
28	0.0152967	0.0351495	4.33089	3.40734	25	OUTLET	0
29	0.0245409	0.0602069	0.801099	0.88777	25	OUTLET	0
30	0.0154125	0.0797015	4.53193	4.51576	25	OUTLET	0
31	0.0127987	0.0723287	2.21912	2.11612	25	OUTLET	0
32	0.0244347	0.0462202	1.81933	0.0696574	25	OUTLET	0
33	0.0135028	0.0294887	1.40879	2.1529	25	OUTLET	0
34	0.0164575	0.0532525	4.15526	2.65263	25	OUTLET	0
35	0.0166179	0.0678746	1.0106	3.92447	25	OUTLET	0
36	0.0194587	0.0636017	0.934615	1.86168	25	OUTLET	0
37	0.0245437	0.0250538	1.27001	0.46746	25	OUTLET	0
38	0.0238018	0.0768048	0.443961	4.04318	25	OUTLET	0
39	0.0205799	0.0329934	2.86709	1.46235	25	OUTLET	0
40	0.0201366	0.0280027	0.807507	0.423362	25	OUTLET	0
41	0.0232536	0.056303	4.77333	1.79469	25	OUTLET	0
42	0.0118195	0.0297496	2.96147	4.7792	25	OUTLET	0
43	0.0213604	0.0350845	2.08362	0.907073	25	OUTLET	0
44	0.0185899	0.0398929	0.186465	4.01358	25	OUTLET	0
45	0.0162853	0.0581671	2.1046	3.42992	25	OUTLET	0
46	0.0223141	0.0631476	0.129931	3.62409	25	OUTLET	0
47	0.0152309	0.0653742	3.53864	1.82361	25	OUTLET	0
48	0.0180544	0.0796933	0.533379	4.81033	25	OUTLET	0
49	0.0179725	0.0707869	4.36286	4.16854	25	OUTLET	0
50	0.0159822	0.0334145	3.13474	3.9585	25	OUTLET	0
51	0.0219505	0.0661945	1.35584	4.43481	25	OUTLET	0
52	0.0226292	0.0200339	0.409628	0.742199	25	OUTLET	0
53	0.0110788	0.0318196	2.63653	1.73922	25	OUTLET	0
54	0.0170302	0.0327498	3.60319	3.51026	25	OUTLET	0
55	0.0217164	0.0416233	0.54963	2.96063	25	OUTLET	0
56	0.0169606	0.0421643	4.6389	1.32532	25	OUTLET	0
57	0.0116456	0.0643964	4.31655	3.78859	25	OUTLET	0
58	0.0160484	0.0662312	4.98428	0.307469	25	OUTLET	0
59	0.0127787	0.0559863	2.49165	2.24277	25	OUTLET	0
60	0.0144125	0.0713939	1.2636	2.53994	25	OUTLET	0
61	0.0201861	0.0236036	1.35279	4.33219	25	OUTLET	0
62	0.0124315	0.0386624	2.68406	0.761273	25	OUTLET	0
63	0.022103	0.0619629	4.69642	0.00732433	25	OUTLET	0
64	0.0153815	0.0512163	1.87747	4.03113	25	OUTLET	0
65	0.0135768	0.0234516	0.584573	1.81392	25	OUTLET	0
66	0.0124736	0.0509242	2.65064	0.281071	25	OUTLET	0
67	0.0134441	0.041919	2.68467	2.45472	25	OUTLET	0
68	0.0132478	0.0510359	1.04639	0.505455	25	OUTLET	0
69	0.0243469	0.020499	4.17105	1.48875	25	OUTLET	0
70	0.0207862	0.0352026	4.1606	2.31937	25	OUTLET	0
71	0.0155526	0.0559222	0.149996	4.84276	25	OUTLET	0
72	0.0228052	0.0462376	1.25895	1.34745	25	OUTLET	0
73	0.011772	0.0297496	2.61234	1.57931	25	OUTLET	0
74	0.0186435	0.034884	2.98741	4.78416	25	OUTLET	0
75	0.020174	0.0232969	1.77165	0.552224	25	OUTLET	0
76	0.0137793	0.0587485	1.4358	4.85611	25	OUTLET	0
77	0.0194387	0.0248432	2.3019	0.685969	25	OUTLET	0
78	0.0211639	0.0288771	4.12207	4.62066	25	OUTLET	0
79	0.0150783	0.0265022	3.29183	4.1873	25	OUTLET	0
80	0.018857	0.0438041	3.02411	3.17761	25	OUTLET	0
81	0.0222996	0.0376599	4.38972	4.29664	25	OUTLET	0
82	0.0217409	0.0473335	3.18273	3.16648	25	OUTLET	0
83	0.0126802	0.0555221	2.42245	0.721675	25	OUTLET	0
84	0.01865	0.0227008	4.46006	3.69009	25	OUTLET	0
S1	0.019955	0.0715743	3.62417	0.836042	25	OUTLET	0
S2	0.0135043	0.0480558	2.4036	3.89158	25	OUTLET	0

[INFILTRATION]
;;Subcatchment   Param1     Param2     Param3     Param4     Param5
;;-------------- ---------- ---------- ---------- ---------- ----------
1	126.709	5.27947	18.2085	7	0
2	131.135	5.16971	38.8487	7	0
5	119.566	5.74334	38.9018	7	0
6	62.9177	5.00704	20.6052	7	0
7	109.968	7.22961	11.7062	7	0
8	33.1826	4.85896	38.6312	7	0
9	53.0964	6.93044	23.898	7	0
10	33.0721	3.82546	39.7957	7	0
11	48.9939	6.06339	0.90009	7	0
14	89.5347	6.97131	20.134	7	0
15	126.229	4.17992	15.5403	7	0
16	92.4027	7.55006	36.1754	7	0
17	112.258	7.57273	1.75777	7	0
18	97.7145	6.36134	0.754809	7	0
19	110.716	6.27547	30.6061	7	0
20	110.54	7.09415	29.1621	7	0
21	131.213	4.76606	16.6495	7	0
22	89.3757	4.91815	48.2013	7	0
23	84.5891	4.63578	42.629	7	0
24	107.253	4.17376	40.6002	7	0
25	51.4007	4.35736	43.396	7	0
26	42.6841	7.43425	39.6371	7	0
27	60.4275	4.33341	25.6127	7	0
28	41.1299	6.08327	42.1747	7	0
29	53.9278	6.64504	19.9467	7	0
30	51.0868	6.34709	30.7403	7	0
31	52.3774	5.10424	8.91195	7	0
32	89.0754	5.51661	44.5221	7	0
33	82.564	4.23835	1.2821	7	0
34	91.4687	6.93154	11.6288	7	0
35	78.6844	4.18934	9.64057	7	0
36	65.373	6.32332	46.809	7	0
37	55.9994	6.79289	24.6753	7	0
38	92.3388	5.39876	14.249	7	0
39	113.809	7.59082	5.15307	7	0
40	134.974	6.31518	42.9483	7	0
41	64.9583	4.13882	39.5929	7	0
42	146.183	6.96195	35.0596	7	0
43	72.1382	6.46412	26.3951	7	0
44	106.228	6.30215	5.55425	7	0
45	143.019	4.44759	24.1045	7	0
46	81.9614	4.79658	45.7404	7	0
47	128.884	4.15847	36.8332	7	0
48	99.6699	7.35245	4.33227	7	0
49	148.982	5.643	25.106	7	0
50	68.9891	4.00947	1.98122	7	0
51	60.815	4.4984	30.7617	7	0
52	82.9807	4.65653	16.8206	7	0
53	71.7235	6.82178	12.839	7	0
54	80.444	6.06182	17.339	7	0
55	36.1437	5.0468	25.7461	7	0
56	61.66	4.91582	16.8043	7	0
57	56.0963	6.84387	35.8318	7	0
58	148.712	3.89279	20.3339	7	0
59	74.9869	5.32487	15.6126	7	0
60	121.558	4.47828	27.1547	7	0
61	49.2923	4.37189	11.9393	7	0
62	82.8237	4.85891	3.38905	7	0
63	91.9842	5.96839	9.8714	7	0
64	119.638	5.1454	2.84111	7	0
65	78.4014	7.127	38.6909	7	0
66	64.7509	4.60857	36.8583	7	0
67	51.6527	7.48948	32.6393	7	0
68	137.277	7.07927	24.1834	7	0
69	93.9337	3.87622	4.11693	7	0
70	27.5297	6.05234	11.0071	7	0
71	70.239	6.11205	7.56976	7	0
72	72.1556	6.68179	23.3206	7	0
73	73.5722	4.40241	14.4894	7	0
74	108.615	6.23878	10.2564	7	0
75	146.78	7.01875	42.5907	7	0
76	33.4461	4.90582	11.2689	7	0
77	89.8815	4.92396	26.7189	7	0
78	139.032	5.87618	11.4503	7	0
79	131.124	5.57457	21.9777	7	0
80	115.109	4.61758	45.5214	7	0
81	94.9414	5.13942	48.0332	7	0
82	112.508	3.89994	16.7734	7	0
83	118.702	6.05734	2.62282	7	0
84	98.7997	7.48692	15.8486	7	0
S1	115.404	7.55169	25.0441	7	0
S2	31.8183	5.59864	17.6178	7	0

[JUNCTIONS]
;;Name           Elevation  MaxDepth   InitDepth  SurDepth   Aponded
;;-------------- ---------- ---------- ---------- ---------- ----------
4147-07	3.7	2.25	0	0	0
4147-44	3.57	3.3	0	0	0
4147-45	3.82	3.45	0	0	0
4147-46	3.67	2.1	0	0	0
4147-47	3.36	1.97	0	0	0
4147-48	3.158	0.78	0	0	0
4147-49	3.282	0.3	0	0	0
4147-50	3.48	1.96	0	0	0
4147-51	3.282	0.99	0	0	0
4147-52	3.58	3.15	0	0	0
4147-F1	3.88	2.07	0	0	0
4148-64	5.29	5.1	0	0	0
4148-65	3.41	3.15	0	0	0
4148-66	3.19	1.87	0	0	0
4148-67	3.14	3.08	0	0	0
4148-68	2.84	1.35	0	0	0
4148-69	2.87	3.4	0	0	0
4148-70	2.79	1.15	0	0	0
4148-77	3.12	3.16	0	0	0
4148-78	3.01	3.3	0	0	0
4148-79	2.813	1.95	0	0	0
4148-F3	3.01	1.95	0	0	0
4147-F2	3.67	0.49	0	0	0
4148-F4	2.64	1	0	0	0
4148-71	2.64	1	0	0	0
4148-F2	5.34	3.7	0	0	0
4148-F5	3.4	1.99	0	0	0
4247-62	4.142	5.13	0	0	0
4247-63	4.262	5.31	0	0	0
4248-43	2.369	4.83	0	0	0
4248-44	3.83	4.83	0	0	0
4248-45	3.89	4.84	0	0	0
4248-46	2.308	4.84	0	0	0
4248-47	3.71	4.83	0	0	0
4248-48	3.51	4.66	0	0	0
4249-67	3.65	4.5	0	0	0
4249-68	2.156	4.74	0	0	0
4249-69	3.107	4.74	0	0	0
4249-70	3.3	4.73	0	0	0
4249-F3	3.3	4.73	0	0	0
4149-39	2.89	2.2	0	0	0
4149-40	3.08	2.3	0	0	0
4149-42	2.91	2.4	0	0	0
4149-43	2.9	2.55	0	0	0
4149-44	2.95	2.8	0	0	0
4149-46	3.26	1.57	0	0	0
4149-47	3.17	1.4	0	0	0
4149-48	3.19	1.78	0	0	0
4149-49	3.15	2.64	0	0	0
4149-50	3.16	2.64	0	0	0
4149-56	2.77	2.71	0	0	0
4149-57	2.96	1.4	0	0	0
4149-59	2.7	1.4	0	0	0
4149-61	2.78	2.98	0	0	0
4149-63	2.8	3.25	0	0	0
4149-64	2.85	3.16	0	0	0
4149-66	2.64	2.65	0	0	0
4149-67	2.74	2.65	0	0	0
4149-68	2.54	2.93	0	0	0
4149-71	2.7	2.49	0	0	0
4149-72	2.85	4	0	0	0
4149-73	2.76	3.07	0	0	0
4149-74	2.86	4	0	0	0
4149-76	2.98	4.1	0	0	0
4149-77	2.98	4.3	0	0	0
4149-78	2.63	4.23	0	0	0
4149-79	2.56	3.95	0	0	0
4149-80	2.65	4.5	0	0	0
4148-40	3.41	2	0	0	0
4148-41	2.32	2.8	0	0	0
4148-42	3.33	2.8	0	0	0
4148-43	3.34	2.6	0	0	0
4148-44	3.31	2.95	0	0	0
4148-46	2.83	3	0	0	0
4148-51	2.69	2.6	0	0	0
4148-52	2.51	2.3	0	0	0
4148-53	2.47	2.3	0	0	0
4148-47	2.26	2.3	0	0	0
4148-54	2.34	1.92	0	0	0
4148-55	2.36	2.28	0	0	0
4148-56	2.46	2.6	0	0	0
4148-57	1.891	1.76	0	0	0
4148-58	2.67	1.76	0	0	0
4148-59	2.75	1.95	0	0	0
4148-60	2.54	2.44	0	0	0
4148-61	3.41	1.74	0	0	0
4148-62	3.1	1.74	0	0	0
4148-63	2.61	2.63	0	0	0
4148-33	2.519	1.53	0	0	0
4148-34	2.67	2.2	0	0	0
4148-35	2.294	2.1	0	0	0
4148-36	1.566	2.1	0	0	0
4148-37	2.281	2.05	0	0	0
4148-38	2.55	2.25	0	0	0
4148-39	2.78	2.4	0	0	0
4148-12	2.48	2.82	0	0	0
4148-13	2.434	2.82	0	0	0
4148-14	3.444	2.55	0	0	0
4148-15	3.41	2.55	0	0	0
4148-16	3.205	2.55	0	0	0
4148-17	3.6	3.81	0	0	0
4148-18	3.44	4.06	0	0	0
4148-19	3.11	4.01	0	0	0
4148-20	3.1	3.9	0	0	0
4148-21	3.01	3.85	0	0	0
4148-22	2.97	3.69	0	0	0
4148-23	2.83	3.57	0	0	0
4148-231	2.5	3.77	0	0	0
4148-24	2.34	3.7	0	0	0
4148-25	2.5	3.7	0	0	0
4148-26	2.524	4	0	0	0
4148-27	2.45	3.8	0	0	0
4148-03	1.545	2.6	0	0	0
4148-04	3.33	2.6	0	0	0
4148-05	3.48	2.66	0	0	0
4148-06	2.92	2.53	0	0	0
4148-07	3.34	2.82	0	0	0
4148-08	2.97	3.8	0	0	0
4148-09	3.03	3.83	0	0	0
4148-10	2.83	2.33	0	0	0
4148-11	2.76	2.43	0	0	0
4148-251	2.75	2.43	0	0	0
4149-41	2.835	2.3	0	0	0
4149-F4	2.77	2.71	0	0	0
4149-58	2.81	2.15	0	0	0
4149-60	2.517	1.4	0	0	0
4149-F5	2.71	2.98	0	0	0
4149-62	2.57	2.75	0	0	0
4149-65	2.652	2.82	0	0	0
4149-69	2.34	3.17	0	0	0
4149-70	2.35	2.91	0	0	0
4149-75	2.621	4.22	0	0	0
4148-80	2.953	2.82	0	0	0
4147-04	2.336	2.95	0	0	0
4147-05	3.563	2.95	0	0	0
4147-06	3.678	2.82	0	0	0
4148-45	2.71	3.4	0	0	0
4148-451	2.71	3	0	0	0
4148-49	2.72	3.4	0	0	0
4148-50	2.64	2.3	0	0	0
4149-04	2.881	4.8	0	0	0
4147-M42	3.96	2.496	0	0	0
4247-61	4.018	4.91	0	0	0

[OUTFALLS]
;;Name           Elevation  Type       Stage Data       Gated    Route To
;;-------------- ---------- ---------- ---------------- -------- ----------------
12	3.08	FIXED	16.5	NO	
13	3.08	FIXED	16.5	NO	

[STORAGE]
;;Name           Elev.    MaxDepth   InitDepth  Curve Type  A1 A2 A0
;;-------------- -------- ---------- ----------- ---------- -- -- --

[CONDUITS]
;;Name           From Node        To Node          Length     Roughness  InOffset   OutOffset  InitFlow   MaxFlow
;;-------------- ---------------- ---------------- ---------- ---------- ---------- ---------- ---------- ----------
4148-10-11	4148-10	4148-11	41.02	0.0104866	0	0	0	0
4148-05-06	4148-05	4148-06	37.02	0.0111575	0	0	0	0
4148-04-05	4148-04	4148-05	83.51	0.0182432	0	0	0	0
4148-24-25	4148-24	4148-25	80.96	0.0123323	0	0	0	0
4148-51-52	4148-51	4148-52	43.77	0.0161891	0	0	0	0
4148-44-46	4148-44	4148-46	44.95	0.0166235	0	0	0	0
4148-40-43	4148-40	4148-43	138.13	0.0167781	0	0	0	0
4149-73-74	4149-73	4149-74	42.44	0.013369	0	0	0	0
4148-59-60	4148-59	4148-60	123.92	0.0120801	0	0	0	0
4148-55-56	4148-55	4148-56	53.01	0.0168322	0	0	0	0
4148-53-55	4148-53	4148-55	75.79	0.0195857	0	0	0	0
4148-53-47	4148-53	4148-47	44.48	0.0178968	0	0	0	0
4148-20-21	4148-20	4148-21	35.36	0.0112464	0	0	0	0
4148-19-20	4148-19	4148-20	33.81	0.0112369	0	0	0	0
4148-18-19	4148-18	4148-19	35.42	0.0114064	0	0	0	0
4148-17-18	4148-17	4148-18	20.7	0.0146419	0	0	0	0
4148-231-24	4148-231	4148-24	16.42	0.0172834	0	0	0	0
4148-23-231	4148-23	4148-231	61.72	0.0183099	0	0	0	0
4148-22-23	4148-22	4148-23	38.63	0.01608	0	0	0	0
4148-21-22	4148-21	4148-22	8.77	0.0183961	0	0	0	0
4149-47-48	4149-47	4149-48	19.2	0.0130051	0	0	0	0
4149-46-47	4149-46	4149-47	7.14	0.0149508	0	0	0	0
4149-39-40	4149-39	4149-40	58.82	0.0179791	0	0	0	0
4149-72-73	4149-72	4149-73	137.65	0.0179255	0	0	0	0
4149-71-73	4149-71	4149-73	32.2	0.0106744	0	0	0	0
4149-63-64	4149-63	4149-64	52.07	0.0133722	0	0	0	0
4148-60-63	4148-60	4148-63	126.85	0.0123943	0	0	0	0
4247-63-4248-43	4247-63	4248-43	109.32	0.0103737	0	0	0	0
4247-62-63	4247-62	4247-63	85.6	0.017192	0	0	0	0
4247-61-62	4247-61	4247-62	91.82	0.0135961	0	0	0	0
4248-46-47	4248-46	4248-47	155.49	0.017337	0	0	0	0
4248-45-46	4248-45	4248-46	53.8	0.0143708	0	0	0	0
4248-44-45	4248-44	4248-45	106.76	0.016661	0	0	0	0
4248-43-44	4248-43	4248-44	87.83	0.0150585	0	0	0	0
4249-68-69	4249-68	4249-69	89.11	0.0179129	0	0	0	0
4249-67-68	4249-67	4249-68	90.66	0.0168548	0	0	0	0
4248-48-4249-67	4248-48	4249-67	95.09	0.0119643	0	0	0	0
4248-47-48	4248-47	4248-48	127.59	0.0137308	0	0	0	0
4249-70-F3	4249-70	4249-F3	51.01	0.0106929	0	0	0	0
4249-69-70	4249-69	4249-70	89.99	0.01211	0	0	0	0
4148-25-26	4148-25	4148-26	84.87	0.012192	0	0	0	0
4148-16-17	4148-16	4148-17	32.12	0.0178517	0	0	0	0
4148-15-16	4148-15	4148-16	14.26	0.018475	0	0	0	0
4148-14-15	4148-14	4148-15	45.24	0.0129009	0	0	0	0
4148-06-07	4148-06	4148-07	41.56	0.0159165	0	0	0	0
4148-03-04	4148-03	4148-04	84.67	0.0146627	0	0	0	0
4148-27-4149-72	4148-27	4149-72	44.47	0.0128917	0	0	0	0
4148-26-27	4148-26	4148-27	55.3	0.0165484	0	0	0	0
4148-07-10	4148-07	4148-10	71.22	0.0165457	0	0	0	0
4148-09-4149-76	4148-09	4149-76	89.41	0.017106	0	0	0	0
4148-08-09	4148-08	4148-09	78.71	0.0178544	0	0	0	0
4148-07-08	4148-07	4148-08	58.59	0.0114726	0	0	0	0
4148-11-251	4148-11	4148-251	28.84	0.0189154	0	0	0	0
4148-58-59	4148-58	4148-59	15.32	0.0106664	0	0	0	0
4148-57-58	4148-57	4148-58	96.6	0.0121157	0	0	0	0
4148-56-60	4148-56	4148-60	86.44	0.0162374	0	0	0	0
4148-52-53	4148-52	4148-53	42.11	0.0150599	0	0	0	0
4148-34-35	4148-34	4148-35	41.62	0.0181424	0	0	0	0
4148-33-34	4148-33	4148-34	91.21	0.0125084	0	0	0	0
4148-62-63	4148-62	4148-63	99.94	0.0170694	0	0	0	0
4148-61-62	4148-61	4148-62	27.82	0.0187362	0	0	0	0
4148-38-39	4148-38	4148-39	49.47	0.0119089	0	0	0	0
4148-37-38	4148-37	4148-38	29.59	0.0146053	0	0	0	0
4148-36-37	4148-36	4148-37	52.52	0.0189586	0	0	0	0
4148-35-36	4148-35	4148-36	42.29	0.0117546	0	0	0	0
4148-13-14	4148-13	4148-14	12.3	0.0194873	0	0	0	0
4148-12-14	4148-12	4148-14	20.25	0.0100832	0	0	0	0
4147-F1-4148-14	4147-F1	4148-14	16.24	0.015752	0	0	0	0
4148-39-4149-66	4148-39	4149-66	41.54	0.0137343	0	0	0	0
4149-48-49	4149-48	4149-49	28.4	0.0101993	0	0	0	0
4149-43-44	4149-43	4149-44	46.32	0.0166737	0	0	0	0
4149-42-43	4149-42	4149-43	37.83	0.0186404	0	0	0	0
4149-76-77	4149-76	4149-77	94.72	0.0199603	0	0	0	0
4149-67-68	4149-67	4149-68	95	0.0112258	0	0	0	0
4149-66-67	4149-66	4149-67	43.99	0.0166699	0	0	0	0
4149-49-50	4149-49	4149-50	43.26	0.0101877	0	0	0	0
4149-80-4249-F3	4149-80	4249-F3	55.97	0.0176239	0	0	0	0
4149-79-80	4149-79	4149-80	24.93	0.0110263	0	0	0	0
4149-78-79	4149-78	4149-79	41.16	0.0163618	0	0	0	0
4149-77-78	4149-77	4149-78	54.97	0.017017	0	0	0	0
4148-46-56	4148-46	4148-56	95.9	0.0195882	0	0	0	0
4148-43-44	4148-43	4148-44	19.85	0.019924	0	0	0	0
4148-42-43	4148-42	4148-43	13.88	0.0156329	0	0	0	0
4148-41-42	4148-41	4148-42	118.73	0.0150799	0	0	0	0
4147-06-4148-13	4147-06	4148-13	11.19	0.0100487	0	0	0	0
4147-05-06	4147-05	4147-06	11.92	0.0160618	0	0	0	0
4147-04-05	4147-04	4147-05	11.34	0.0176127	0	0	0	0
4148-80-4147-06	4148-80	4147-06	150.65	0.0146415	0	0	0	0
4149-70-71	4149-70	4149-71	78.54	0.0179773	0	0	0	0
4149-69-70	4149-69	4149-70	30	0.0101656	0	0	0	0
4149-62-63	4149-62	4149-63	86.6	0.0110546	0	0	0	0
4149-40-41	4149-40	4149-41	55.44	0.0169834	0	0	0	0
4149-64-65	4149-64	4149-65	93.57	0.0150973	0	0	0	0
4149-61-62	4149-61	4149-62	43.99	0.0181671	0	0	0	0
4149-F5-61	4149-F5	4149-61	46.64	0.0184694	0	0	0	0
4149-F4-56	4149-F4	4149-56	44.65	0.0156179	0	0	0	0
4148-63-4149-F4	4148-63	4149-F4	44	0.0178398	0	0	0	0
4149-74-75	4149-74	4149-75	58.18	0.0181254	0	0	0	0
4149-68-69	4149-68	4149-69	43.99	0.0154473	0	0	0	0
4149-65-71	4149-65	4149-71	41.97	0.0177559	0	0	0	0
4149-50-62	4149-50	4149-62	49.22	0.0117276	0	0	0	0
4149-44-62	4149-44	4149-62	10.92	0.0123496	0	0	0	0
4149-41-42	4149-41	4149-42	40.51	0.0148792	0	0	0	0
4149-60-F5	4149-60	4149-F5	31.96	0.0165493	0	0	0	0
4149-59-60	4149-59	4149-60	62.04	0.0110913	0	0	0	0
4149-58-59	4149-58	4149-59	30.73	0.0109607	0	0	0	0
4149-57-58	4149-57	4149-58	11.83	0.0183777	0	0	0	0
4249-F3-4149-04	4249-F3	4149-04	42.39	0.0156266	0	0	0	0
4148-66-67	4148-66	4148-67	62.7	0.0144198	0	0	0	0
4148-65-66	4148-65	4148-66	39.5	0.0168724	0	0	0	0
4148-64-65	4148-64	4148-65	57	0.0125161	0	0	0	0
4148-70-F4	4148-70	4148-F4	45.3	0.0113722	0	0	0	0
4148-69-70	4148-69	4148-70	60.6	0.0106819	0	0	0	0
4148-68-69	4148-68	4148-69	49.4	0.0198727	0	0	0	0
4148-67-68	4148-67	4148-68	51.8	0.0150292	0	0	0	0
4148-F3-78	4148-F3	4148-78	116	0.0115802	0	0	0	0
4148-78-77	4148-78	4148-77	12.4	0.0151194	0	0	0	0
4148-77-64	4148-77	4148-64	115.7	0.0133172	0	0	0	0
4148-F4-71	4148-F4	4148-71	14.38	0.013341	0	0	0	0
4147-44-45	4147-44	4147-45	75.5	0.0194543	0	0	0	0
4147-M42-52	4147-M42	4147-52	56.6	0.0107936	0	0	0	0
4147-49-50	4147-49	4147-50	63.2	0.0139469	0	0	0	0
4147-47-48	4147-47	4147-48	62.86	0.0168867	0	0	0	0
4147-46-F2	4147-46	4147-F2	40.39	0.0133236	0	0	0	0
4147-45-4148-64	4147-45	4148-64	62.5	0.0112673	0	0	0	0
4147-F2-47	4147-F2	4147-47	58.88	0.0186267	0	0	0	0
4147-52-44	4147-52	4147-44	69.1	0.0120078	0	0	0	0
4147-51-4148-77	4147-51	4148-77	14.14	0.012412	0	0	0	0
4147-50-51	4147-50	4147-51	59.97	0.0103163	0	0	0	0
4147-07-F1	4147-07	4147-F1	27.98	0.013818	0	0	0	0
4147-48-4148-79	4147-48	4148-79	15.61	0.0109186	0	0	0	0
4148-F5-79	4148-F5	4148-79	13.96	0.0127007	0	0	0	0
4148-79-F3	4148-79	4148-F3	20.2	0.0163499	0	0	0	0
4148-50-53	4148-50	4148-53	400	0.0139533	0	0	0	0
4148-45-451	4148-45	4148-451	54.9	0.0112244	0	0	0	0
4148-451-46	4148-451	4148-46	73.754	0.0159452	0	0	0	0
4148-54-55	4148-54	4148-55	43	0.0171839	0	0	0	0

[PUMPS]
;;Name           From Node        To Node          Pump Curve       Status   Sartup Shutoff
;;-------------- ---------------- ---------------- ---------------- ------ -------- --------
1	4148-71	12	1	ON	1.5	1.2
2	4148-66	13	1	ON	1.7	1.5

[XSECTIONS]
;;Link           Shape        Geom1            Geom2      Geom3      Geom4      Barrels    Culvert
;;-------------- ------------ ---------------- ---------- ---------- ---------- ---------- ----------
4148-10-11	CIRCULAR	1	0	0	0	1	0
4148-05-06	CIRCULAR	1	0	0	0	1	0
4148-04-05	CIRCULAR	1	0	0	0	1	0
4148-24-25	CIRCULAR	1.8	0	0	0	1	0
4148-51-52	CIRCULAR	1.2	0	0	0	1	0
4148-44-46	CIRCULAR	1.65	0	0	0	1	0
4148-40-43	CIRCULAR	1	0	0	0	1	0
4149-73-74	RECT_CLOSED	2.94	3.3	0	0	1	0
4148-59-60	CIRCULAR	1	0	0	0	1	0
4148-55-56	CIRCULAR	1.35	0	0	0	1	0
4148-53-55	CIRCULAR	1.35	0	0	0	1	0
4148-53-47	CIRCULAR	1	0	0	0	1	0
4148-20-21	CIRCULAR	1.2	0	0	0	1	0
4148-19-20	CIRCULAR	1.2	0	0	0	1	0
4148-18-19	CIRCULAR	1.2	0	0	0	1	0
4148-17-18	CIRCULAR	1.2	0	0	0	1	0
4148-231-24	CIRCULAR	1.8	0	0	0	1	0
4148-23-231	CIRCULAR	1.5	0	0	0	1	0
4148-22-23	CIRCULAR	1.2	0	0	0	1	0
4148-21-22	CIRCULAR	1.2	0	0	0	1	0
4149-47-48	CIRCULAR	1	0	0	0	1	0
4149-46-47	CIRCULAR	1	0	0	0	1	0
4149-39-40	CIRCULAR	1	0	0	0	1	0
4149-72-73	CIRCULAR	1.8	0	0	0	1	0
4149-71-73	RECT_CLOSED	2.04	2.5	0	0	1	0
4149-63-64	RECT_CLOSED	1.8	2.5	0	0	1	0
4148-60-63	CIRCULAR	1.8	0	0	0	1	0
4247-63-4248-43	RECT_CLOSED	3.5	4.53	0	0	1	0
4247-62-63	RECT_CLOSED	3.5	4.54	0	0	1	0
4247-61-62	RECT_CLOSED	3.5	4.55	0	0	1	0
4248-46-47	RECT_CLOSED	3.5	4.51	0	0	1	0
4248-45-46	RECT_CLOSED	3.5	4.5	0	0	1	0
4248-44-45	RECT_CLOSED	3.5	4.5	0	0	1	0
4248-43-44	RECT_CLOSED	3.5	4.5	0	0	1	0
4249-68-69	RECT_CLOSED	3.5	4.53	0	0	1	0
4249-67-68	RECT_CLOSED	3.5	4.53	0	0	1	0
4248-48-4249-67	RECT_CLOSED	3.5	4.53	0	0	1	0
4248-47-48	RECT_CLOSED	3.5	4.52	0	0	1	0
4249-70-F3	RECT_CLOSED	3.53	4.5	0	0	1	0
4249-69-70	RECT_CLOSED	3.53	4.53	0	0	1	0
4148-25-26	RECT_CLOSED	1.1	1.8	0	0	1	0
4148-16-17	CIRCULAR	1.2	0	0	0	1	0
4148-15-16	CIRCULAR	1.2	0	0	0	1	0
4148-14-15	CIRCULAR	1.5	0	0	0	1	0
4148-06-07	CIRCULAR	1	0	0	0	1	0
4148-03-04	CIRCULAR	1	0	0	0	1	0
4148-27-4149-72	RECT_CLOSED	1.5	1.8	0	0	1	0
4148-26-27	RECT_CLOSED	1.5	1.8	0	0	1	0
4148-07-10	CIRCULAR	1	0	0	0	1	0
4148-09-4149-76	RECT_CLOSED	2.6	3.15	0	0	1	0
4148-08-09	RECT_CLOSED	2	3.4	0	0	1	0
4148-07-08	RECT_CLOSED	2	3.4	0	0	1	0
4148-11-251	CIRCULAR	1	0	0	0	1	0
4148-58-59	CIRCULAR	1	0	0	0	1	0
4148-57-58	CIRCULAR	1	0	0	0	1	0
4148-56-60	CIRCULAR	1.8	0	0	0	1	0
4148-52-53	CIRCULAR	1.2	0	0	0	1	0
4148-34-35	CIRCULAR	1.4	0	0	0	1	0
4148-33-34	CIRCULAR	1.2	0	0	0	1	0
4148-62-63	CIRCULAR	1	0	0	0	1	0
4148-61-62	CIRCULAR	1	0	0	0	1	0
4148-38-39	CIRCULAR	1.5	0	0	0	1	0
4148-37-38	CIRCULAR	1.4	0	0	0	1	0
4148-36-37	CIRCULAR	1.4	0	0	0	1	0
4148-35-36	CIRCULAR	1.8	0	0	0	1	0
4148-13-14	CIRCULAR	1.5	0	0	0	1	0
4148-12-14	CIRCULAR	1	0	0	0	1	0
4147-F1-4148-14	CIRCULAR	1.5	0	0	0	1	0
4148-39-4149-66	CIRCULAR	1.5	0	0	0	1	0
4149-48-49	CIRCULAR	1	0	0	0	1	0
4149-43-44	CIRCULAR	1.2	0	0	0	1	0
4149-42-43	CIRCULAR	1.2	0	0	0	1	0
4149-76-77	RECT_CLOSED	2.6	3.3	0	0	1	0
4149-67-68	CIRCULAR	1.65	0	0	0	1	0
4149-66-67	CIRCULAR	1.5	0	0	0	1	0
4149-49-50	CIRCULAR	1	0	0	0	1	0
4149-80-4249-F3	RECT_CLOSED	3.4	4	0	0	1	0
4149-79-80	RECT_CLOSED	3.4	4	0	0	1	0
4149-78-79	RECT_CLOSED	3.4	4	0	0	1	0
4149-77-78	RECT_CLOSED	3	4	0	0	1	0
4148-46-56	CIRCULAR	1.65	0	0	0	1	0
4148-43-44	CIRCULAR	1.65	0	0	0	1	0
4148-42-43	CIRCULAR	1.2	0	0	0	1	0
4148-41-42	CIRCULAR	1.2	0	0	0	1	0
4147-06-4148-13	CIRCULAR	1.5	0	0	0	1	0
4147-05-06	CIRCULAR	1.5	0	0	0	1	0
4147-04-05	CIRCULAR	1.5	0	0	0	1	0
4148-80-4147-06	CIRCULAR	1.2	0	0	0	1	0
4149-70-71	CIRCULAR	1.8	0	0	0	1	0
4149-69-70	CIRCULAR	1.8	0	0	0	1	0
4149-62-63	RECT_CLOSED	1.8	2.5	0	0	1	0
4149-40-41	CIRCULAR	1	0	0	0	1	0
4149-64-65	RECT_CLOSED	2	2.4	0	0	1	0
4149-61-62	RECT_CLOSED	1.64	2.2	0	0	1	0
4149-F5-61	RECT_CLOSED	1.64	2.2	0	0	1	0
4149-F4-56	RECT_CLOSED	1.66	2.08	0	0	1	0
4148-63-4149-F4	RECT_CLOSED	1.68	2	0	0	1	0
4149-74-75	RECT_CLOSED	2.5	3.6	0	0	1	0
4149-68-69	CIRCULAR	1.65	0	0	0	1	0
4149-65-71	RECT_CLOSED	2.1	2.5	0	0	1	0
4149-50-62	CIRCULAR	1	0	0	0	1	0
4149-44-62	CIRCULAR	1.2	0	0	0	1	0
4149-41-42	CIRCULAR	1.2	0	0	0	1	0
4149-60-F5	CIRCULAR	1	0	0	0	1	0
4149-59-60	CIRCULAR	1	0	0	0	1	0
4149-58-59	CIRCULAR	1	0	0	0	1	0
4149-57-58	CIRCULAR	1	0	0	0	1	0
4249-F3-4149-04	RECT_CLOSED	3.53	4.5	0	0	1	0
4148-66-67	CIRCULAR	2	0	0	0	1	0
4148-65-66	RECT_CLOSED	2.34	2.08	0	0	1	0
4148-64-65	RECT_CLOSED	2.28	2.2	0	0	1	0
4148-70-F4	CIRCULAR	2	0	0	0	1	0
4148-69-70	CIRCULAR	2	0	0	0	1	0
4148-68-69	CIRCULAR	2	0	0	0	1	0
4148-67-68	CIRCULAR	2	0	0	0	1	0
4148-F3-78	CIRCULAR	2	0	0	0	1	0
4148-78-77	CIRCULAR	2	0	0	0	1	0
4148-77-64	CIRCULAR	2	0	0	0	1	0
4148-F4-71	RECT_CLOSED	2.34	5.8	0	0	1	0
4147-44-45	RECT_CLOSED	2	1.95	0	0	1	0
4147-M42-52	CIRCULAR	2	0	0	0	1	0
4147-49-50	CIRCULAR	1	0	0	0	1	0
4147-47-48	CIRCULAR	1	0	0	0	1	0
4147-46-F2	CIRCULAR	1	0	0	0	1	0
4147-45-4148-64	CIRCULAR	2.4	0	0	0	1	0
4147-F2-47	CIRCULAR	1	0	0	0	1	0
4147-52-44	CIRCULAR	2	0	0	0	1	0
4147-51-4148-77	CIRCULAR	1	0	0	0	1	0
4147-50-51	CIRCULAR	1	0	0	0	1	0
4147-07-F1	CIRCULAR	1.6	0	0	0	1	0
4147-48-4148-79	CIRCULAR	1	0	0	0	1	0
4148-F5-79	CIRCULAR	1	0	0	0	1	0
4148-79-F3	CIRCULAR	1.2	0	0	0	1	0
4148-50-53	CIRCULAR	1	0	0	0	1	0
4148-45-451	CIRCULAR	0.8	0	0	0	1	0
4148-451-46	CIRCULAR	0.56	0.76	0	0	1	0
4148-54-55	CIRCULAR	1	0	0	0	1	0

[LOSSES]
;Conduit    Kentry      Kexit       Kavg        Flap        Seepage
;-------    ------      -------     -------     -------     ---------

[CONTROLS]
;--------------------------------------------
RULE	PUMP1A
IF	NODE	4148-71	DEPTH	>=	1.5
THEN	PUMP	1	status	=	ON
PRIORITY	1
RULE	PUMP1B
IF	NODE	4148-71	DEPTH	<	1.2
THEN	PUMP	1	status	=	OFF
PRIORITY	2
RULE	PUMP2A
IF	NODE	4148-66	DEPTH	>=	1.7
THEN	PUMP	2	status	=	ON
PRIORITY	1
RULE	PUMP2B
IF	NODE	4148-66	DEPTH	<	1.4
THEN	PUMP	2	status	=	OFF
PRIORITY	2

[CURVES]
;;Name           Type       X-Value    Y-Value
;;-------------- ---------- ---------- ----------
1                Pump3      11         7.2       
1                           12         6.9       
1                           13         6.5       
1                           14         6.1       
1                           15         5.7       
1                           16         5.2       
1                           17         4.7       
1                           18         4.1       
1                           19         3.6       
1                           20         2.9       
1                           21         2.3       
1                           22         4.5       
1                           23         0.8       
1                           24         0

[TIMESERIES]
;;Name           Date       Time       Value
;;-------------- ---------- ---------- ----------
RainSeries1	06/03/2021	16:00	0
RainSeries1	06/03/2021	17:00	0
RainSeries1	06/03/2021	18:00	0
RainSeries1	06/03/2021	19:00	0
RainSeries1	06/03/2021	20:00	0
RainSeries1	06/03/2021	21:00	0
RainSeries1	06/03/2021	22:00	0
RainSeries1	06/03/2021	23:00	0
RainSeries1	06/04/2021	00:00	0
RainSeries1	06/04/2021	01:00	0
RainSeries1	06/04/2021	02:00	0
RainSeries1	06/04/2021	03:00	0
RainSeries1	06/04/2021	04:00	0
RainSeries1	06/04/2021	05:00	0
RainSeries1	06/04/2021	06:00	0
RainSeries1	06/04/2021	07:00	0
RainSeries1	06/04/2021	08:00	0
RainSeries1	06/04/2021	09:00	0
RainSeries1	06/04/2021	10:00	0
RainSeries1	06/04/2021	11:00	0
RainSeries1	06/04/2021	12:00	0
RainSeries1	06/04/2021	13:00	0
RainSeries1	06/04/2021	14:00	32
RainSeries1	06/04/2021	15:00	71.5