[TITLE]
;;Project Title/Notes
titleName
Huishui	Co.

[OPTIONS]
;;Option             Value
FLOW_UNITS           CMS
INFILTRATION         HORTON
FLOW_ROUTING         DYNWAVE
LINK_OFFSETS         ELEVATION
MIN_SLOPE            0
ALLOW_PONDING        NO
SKIP_STEADY_STATE    NO

START_DATE           06/03/2021
START_TIME           16:00:00
REPORT_START_DATE    06/03/2021
REPORT_START_TIME    16:00:00
END_DATE             06/04/2021
END_TIME             21:01:00
SWEEP_START          01/01
SWEEP_END            12/31
DRY_DAYS             1
REPORT_STEP          01:00:00
WET_STEP             00:01:00
DRY_STEP             00:01:00
ROUTING_STEP         0:00:10 
RULE_STEP            00:00:00

INERTIAL_DAMPING     PARTIAL
NORMAL_FLOW_LIMITED  SLOPE
FORCE_MAIN_EQUATION  H-W
VARIABLE_STEP        0.75
LENGTHENING_STEP     0
MIN_SURFAREA         12.557
MAX_TRIALS           8
HEAD_TOLERANCE       0.0015
SYS_FLOW_TOL         5
LAT_FLOW_TOL         5
MINIMUM_STEP         0.5
THREADS              2

[EVAPORATION]
;;Data Source    Parameters
;;-------------- ----------------
CONSTANT         0
DRY_ONLY         NO

[RAINGAGES]
;;Name           Format    Interval SCF      Source    
;;-------------- --------- ------ ------ ----------
RG1              INTENSITY 1    1        TIMESERIES RainSeries1     

[SUBCATCHMENTS]
;;Name           Rain Gage        Outlet           Area     %Imperv  Width    %Slope   CurbLen  SnowPack        
;;-------------- ---------------- ---------------- -------- -------- -------- -------- -------- ----------------
1                RG1              20216            4.45     0        500      0.5      0                        
2                RG1              20200            2.7      0        500      0.5      0                        
3                RG1              20206            1.13     0        500      0.5      0                        
4                RG1              20197            1.85     0        500      0.5      0                        
5                RG1              20172            0.25     0        500      0.5      0                        
6                RG1              20175            0.45     0        500      0.5      0                        
7                RG1              20106            0.16     0        500      0.5      0                        
8                RG1              20232            0.41     0        500      0.5      0                        
9                RG1              20271            0.39     0        500      0.5      0                        
10               RG1              20226            0.27     0        500      0.5      0                        
11               RG1              20251            0.64     0        500      0.5      0                        
15               RG1              20243            0.54     0        500      0.5      0                        
16               RG1              20244            0.52     0        500      0.5      0                        
18               RG1              20123            0.1      0        500      0.5      0                        
19               RG1              20086            0.93     0        500      0.5      0                        
20               RG1              20090            2        0        500      0.5      0                        
21               RG1              20096            1.31     90       500      0.5      0                        
22               RG1              20122            1.69     90       500      0.5      0                        
23               RG1              20095            1.37     90       500      0.5      0                        
24               RG1              20092            0.95     90       500      0.5      0                        
25               RG1              20091            0.87     90       500      0.5      0                        
26               RG1              20093            1.34     90       500      0.5      0                        
27               RG1              20124            0.43     90       500      0.5      0                        
28               RG1              20118            0.88     90       500      0.5      0                        
29               RG1              20130            1.67     90       500      0.5      0                        
30               RG1              20133            0.83     90       500      0.5      0                        
31               RG1              20136            0.8      90       500      0.5      0                        
32               RG1              20140            0.84     90       500      0.5      0                        
33               RG1              20142            0.74     90       500      0.5      0                        
34               RG1              20143            0.66     90       500      0.5      0                        
35               RG1              20146            0.59     90       500      0.5      0                        
36               RG1              20116            0.31     90       500      0.5      0                        
37               RG1              20151            0.67     90       500      0.5      0                        
38               RG1              20109            1.87     90       500      0.5      0                        
39               RG1              20104            0.94     90       500      0.5      0                        
40               RG1              20103            0.83     90       500      0.5      0                        
41               RG1              24013            1.06     90       500      0.5      0                        
42               RG1              24011            1.29     90       500      0.5      0                        
43               RG1              20100            1.92     90       500      0.5      0                        
44               RG1              20082            2.46     90       500      0.5      0                        
45               RG1              20237            1.84     90       500      0.5      0                        
46               RG1              20281            2.66     90       500      0.5      0                        
47               RG1              20248            1.65     90       500      0.5      0                        
48               RG1              20181            3.61     90       500      0.5      0                        
49               RG1              20081            0.59     90       500      0.5      0                        
50               RG1              20088            1.11     90       500      0.5      0                        
51               RG1              20121            0.32     90       500      0.5      0                        
52               RG1              20085            3.38     90       500      0.5      0                        
53               RG1              20099            1.06     90       500      0.5      0                        
54               RG1              20275            0.82     90       500      0.5      0                        
55               RG1              20270            0.7      90       500      0.5      0                        
56               RG1              20264            1.23     90       500      0.5      0                        
57               RG1              20227            1.32     90       500      0.5      0                        
58               RG1              20266            0.72     90       500      0.5      0                        
59               RG1              20258            1.51     90       500      0.5      0                        
60               RG1              20219            0.8      90       500      0.5      0                        
61               RG1              20222            1.45     90       500      0.5      0                        
62               RG1              20211            2.33     90       500      0.5      0                        
63               RG1              20166            6.24     90       500      0.5      0                        
64               RG1              20193            1.86     90       500      0.5      0                        
65               RG1              20178            0.52     90       500      0.5      0                        
66               RG1              20160            0.62     90       500      0.5      0                        
67               RG1              20164            1.03     90       500      0.5      0                        
S1               RG1              12               4        50       400      0.5      0                        
S2               RG1              14               4        50       400      0.5      0                        
S3               RG1              13               4        50       400      0.5      0                        

[SUBAREAS]
;;Subcatchment   N-Imperv   N-Perv     S-Imperv   S-Perv     PctZero    RouteTo    PctRouted 
;;-------------- ---------- ---------- ---------- ---------- ---------- ---------- ----------
1                0.015      0.05       2          7          25         OUTLET    
2                0.015      0.05       2          7          25         OUTLET    
3                0.015      0.05       2          7          25         OUTLET    
4                0.015      0.05       2          7          25         OUTLET    
5                0.015      0.05       2          7          25         OUTLET    
6                0.015      0.05       2          7          25         OUTLET    
7                0.015      0.05       2          7          25         OUTLET    
8                0.015      0.05       2          7          25         OUTLET    
9                0.015      0.05       2          7          25         OUTLET    
10               0.015      0.05       2          7          25         OUTLET    
11               0.015      0.05       2          7          25         OUTLET    
15               0.015      0.05       2          7          25         OUTLET    
16               0.015      0.05       2          7          25         OUTLET    
18               0.015      0.05       2          7          25         OUTLET    
19               0.015      0.05       2          7          25         OUTLET    
20               0.015      0.05       2          7          25         OUTLET    
21               0.015      0.05       2          7          25         OUTLET    
22               0.015      0.05       2          7          25         OUTLET    
23               0.015      0.05       2          7          25         OUTLET    
24               0.015      0.05       2          7          25         OUTLET    
25               0.015      0.05       2          7          25         OUTLET    
26               0.015      0.05       2          7          25         OUTLET    
27               0.015      0.05       2          7          25         OUTLET    
28               0.015      0.05       2          7          25         OUTLET    
29               0.015      0.05       2          7          25         OUTLET    
30               0.015      0.05       2          7          25         OUTLET    
31               0.015      0.05       2          7          25         OUTLET    
32               0.015      0.05       2          7          25         OUTLET    
33               0.015      0.05       2          7          25         OUTLET    
34               0.015      0.05       2          7          25         OUTLET    
35               0.015      0.05       2          7          25         OUTLET    
36               0.015      0.05       2          7          25         OUTLET    
37               0.015      0.05       2          7          25         OUTLET    
38               0.015      0.05       2          7          25         OUTLET    
39               0.015      0.05       2          7          25         OUTLET    
40               0.015      0.05       2          7          25         OUTLET    
41               0.015      0.05       2          7          25         OUTLET    
42               0.015      0.05       2          7          25         OUTLET    
43               0.015      0.05       2          7          25         OUTLET    
44               0.015      0.05       2          7          25         OUTLET    
45               0.015      0.05       2          7          25         OUTLET    
46               0.015      0.05       2          7          25         OUTLET    
47               0.015      0.05       2          7          25         OUTLET    
48               0.015      0.05       2          7          25         OUTLET    
49               0.015      0.05       2          7          25         OUTLET    
50               0.015      0.05       2          7          25         OUTLET    
51               0.015      0.05       2          7          25         OUTLET    
52               0.015      0.05       2          7          25         OUTLET    
53               0.015      0.05       2          7          25         OUTLET    
54               0.015      0.05       2          7          25         OUTLET    
55               0.015      0.05       2          7          25         OUTLET    
56               0.015      0.05       2          7          25         OUTLET    
57               0.015      0.05       2          7          25         OUTLET    
58               0.015      0.05       2          7          25         OUTLET    
59               0.015      0.05       2          7          25         OUTLET    
60               0.015      0.05       2          7          25         OUTLET    
61               0.015      0.05       2          7          25         OUTLET    
62               0.015      0.05       2          7          25         OUTLET    
63               0.015      0.05       2          7          25         OUTLET    
64               0.015      0.05       2          7          25         OUTLET    
65               0.015      0.05       2          7          25         OUTLET    
66               0.015      0.05       2          7          25         OUTLET    
67               0.015      0.05       2          7          25         OUTLET    
S1               0.01       0.1        0.05       0.05       25         OUTLET    
S2               0.01       0.1        0.05       0.05       25         OUTLET    
S3               0.01       0.1        0.05       0.05       25         OUTLET    

[INFILTRATION]
;;Subcatchment   MaxRate    MinRate    Decay      DryTime    MaxInfil  
;;-------------- ---------- ---------- ---------- ---------- ----------
1                3          0.5        4          7          0         
2                3          0.5        4          7          0         
3                3          0.5        4          7          0         
4                3          0.5        4          7          0         
5                3          0.5        4          7          0         
6                3          0.5        4          7          0         
7                3          0.5        4          7          0         
8                3          0.5        4          7          0         
9                3          0.5        4          7          0         
10               3          0.5        4          7          0         
11               3          0.5        4          7          0         
15               3          0.5        4          7          0         
16               3          0.5        4          7          0         
18               3          0.5        4          7          0         
19               3          0.5        4          7          0         
20               3          0.5        4          7          0         
21               3          0.5        4          7          0         
22               3          0.5        4          7          0         
23               3          0.5        4          7          0         
24               3          0.5        4          7          0         
25               3          0.5        4          7          0         
26               3          0.5        4          7          0         
27               3          0.5        4          7          0         
28               3          0.5        4          7          0         
29               3          0.5        4          7          0         
30               3          0.5        4          7          0         
31               3          0.5        4          7          0         
32               3          0.5        4          7          0         
33               3          0.5        4          7          0         
34               3          0.5        4          7          0         
35               3          0.5        4          7          0         
36               3          0.5        4          7          0         
37               3          0.5        4          7          0         
38               3          0.5        4          7          0         
39               3          0.5        4          7          0         
40               3          0.5        4          7          0         
41               3          0.5        4          7          0         
42               3          0.5        4          7          0         
43               3          0.5        4          7          0         
44               3          0.5        4          7          0         
45               3          0.5        4          7          0         
46               3          0.5        4          7          0         
47               3          0.5        4          7          0         
48               3          0.5        4          7          0         
49               3          0.5        4          7          0         
50               3          0.5        4          7          0         
51               3          0.5        4          7          0         
52               3          0.5        4          7          0         
53               3          0.5        4          7          0         
54               3          0.5        4          7          0         
55               3          0.5        4          7          0         
56               3          0.5        4          7          0         
57               3          0.5        4          7          0         
58               3          0.5        4          7          0         
59               3          0.5        4          7          0         
60               3          0.5        4          7          0         
61               3          0.5        4          7          0         
62               3          0.5        4          7          0         
63               3          0.5        4          7          0         
64               3          0.5        4          7          0         
65               3          0.5        4          7          0         
66               3          0.5        4          7          0         
67               3          0.5        4          7          0         
S1               3.5        0.5        0.25       7          0         
S2               3.5        0.5        0.25       7          0         
S3               3.5        0.5        0.25       7          0         

[JUNCTIONS]
;;Name           Elevation  MaxDepth   InitDepth  SurDepth   Aponded   
;;-------------- ---------- ---------- ---------- ---------- ----------
20081            10.5       1.51       0          0          0         
20082            10.41      3.82       0          0          0         
20083            10.35      1.95       0          0          0         
20084            10.45      2.53       0          0          0         
20085            10.11      2.38       0          0          0         
20086            9.79       1.97       0          0          0         
20087            9.62       2          0          0          0         
20088            9.55       2.62       0          0          0         
20089            9.67       2.62       0          0          0         
20090            9.84       3.04       0          0          0         
20091            10.12      3.87       0          0          0         
20092            9.87       4.23       0          0          0         
20093            8.93       2.39       0          0          0         
20094            9.04       2.85       0          0          0         
20095            9.12       2.59       0          0          0         
20096            9.4        3.15       0          0          0         
20097            10.16      2.75       0          0          0         
20098            10.37      2.85       0          0          0         
20099            9.73       3.39       0          0          0         
20100            10.33      3.39       0          0          0         
20101            10.42      3.85       0          0          0         
20102            10.32      3.85       0          0          0         
20103            10.22      4.87       0          0          0         
20104            10.16      5.16       0          0          0         
20105            9.29       3.35       0          0          0         
20106            7.67       3.42       0          0          0         
20107            7.56       4.29       0          0          0         
20108            7.61       4.48       0          0          0         
20109            9.65       2.69       0          0          0         
20110            9.6        2.49       0          0          0         
20111            9.55       3.6        0          0          0         
20112            9          3.9        0          0          0         
20113            8.32       3.17       0          0          0         
20114            7.58       2.9        0          0          0         
20115            7.58       3.19       0          0          0         
20116            8.08       4.82       0          0          0         
20117            10         3.59       0          0          0         
20118            9.87       3.44       0          0          0         
20119            9.68       3.59       0          0          0         
20120            9.68       3.87       0          0          0         
20121            9.51       3.07       0          0          0         
20122            9.52       3.85       0          0          0         
20123            9.35       4.03       0          0          0         
20124            9.19       3.87       0          0          0         
20125            9.3        3.96       0          0          0         
20126            9.27       4.12       0          0          0         
20127            9.18       2.8        0          0          0         
20128            9.21       3.43       0          0          0         
20129            9.18       3.34       0          0          0         
20130            9.22       3.79       0          0          0         
20131            9.27       3.84       0          0          0         
20132            9.27       3.59       0          0          0         
20133            9.28       3.85       0          0          0         
20134            9.31       3.78       0          0          0         
20135            9.26       4.19       0          0          0         
20136            9.32       4.36       0          0          0         
20137            9.28       4.27       0          0          0         
20138            9.3        4.39       0          0          0         
20139            9.27       4.29       0          0          0         
20140            9.27       4.38       0          0          0         
20141            9.26       5.12       0          0          0         
20142            9.21       5.05       0          0          0         
20143            9.14       5.07       0          0          0         
20144            16.23      4.61       0          0          0         
20145            8.47       3.96       0          0          0         
20146            8.19       4.08       0          0          0         
20147            7.71       3.28       0          0          0         
20148            7.63       3.59       0          0          0         
20149            4.7        3.59       0          0          0         
20150            10.72      3.48       0          0          0         
20151            9.51       2.35       0          0          0         
20152            10.19      4.29       0          0          0         
20153            10.62      2.4        0          0          0         
20154            10.04      2.4        0          0          0         
20155            10.26      2.68       0          0          0         
20156            10.44      3.15       0          0          0         
20157            10.69      3.45       0          0          0         
20158            10.73      3.76       0          0          0         
20159            11.16      3.03       0          0          0         
20160            11.3       3.31       0          0          0         
20161            10.7       3.97       0          0          0         
20162            10.38      2.44       0          0          0         
20163            10.36      2.53       0          0          0         
20164            10.3       2.63       0          0          0         
20165            10.59      2.85       0          0          0         
20166            10.76      3.18       0          0          0         
20167            10.73      3.61       0          0          0         
20168            10.7       3.55       0          0          0         
20169            10.44      3.75       0          0          0         
20170            10.46      3.79       0          0          0         
20171            10.59      3.76       0          0          0         
20172            12.13      5.37       0          0          0         
20173            12.71      5.8        0          0          0         
20174            11.94      4.14       0          0          0         
20175            12.2       4.54       0          0          0         
20176            12.62      5.55       0          0          0         
20177            12.84      5.22       0          0          0         
20178            13.02      5.29       0          0          0         
20179            12.99      5.36       0          0          0         
20180            10.43      3.28       0          0          0         
20181            10.77      2.94       0          0          0         
20182            10.85      2.94       0          0          0         
20183            10.98      3.04       0          0          0         
20184            10.89      2.11       0          0          0         
20185            11.52      3.29       0          0          0         
20186            11.7       3.51       0          0          0         
20187            11.51      3.42       0          0          0         
20188            11.1       3          0          0          0         
20189            11.05      3.45       0          0          0         
20190            10.82      3.33       0          0          0         
20191            10.83      3.07       0          0          0         
20192            12.29      4.93       0          0          0         
20193            11.07      3.42       0          0          0         
20194            10.79      3.04       0          0          0         
20195            10.88      3.11       0          0          0         
20196            10.85      3.27       0          0          0         
20197            10.99      3.35       0          0          0         
20198            10.94      3.3        0          0          0         
20199            10.91      3.24       0          0          0         
20200            10.75      3.17       0          0          0         
20201            10.58      3.05       0          0          0         
20202            10.75      3.59       0          0          0         
20203            10.82      3.64       0          0          0         
20204            10.73      4.14       0          0          0         
20205            10.63      4.22       0          0          0         
20206            10.66      4.29       0          0          0         
20207            10.63      4.61       0          0          0         
20208            10.54      2.89       0          0          0         
20209            10.76      3.1        0          0          0         
20210            10.95      3.52       0          0          0         
20211            11.24      3.01       0          0          0         
20212            11.09      2.86       0          0          0         
20213            10.96      2.87       0          0          0         
20214            10.94      3.83       0          0          0         
20215            10.69      3.43       0          0          0         
20216            10.51      3.43       0          0          0         